
---------- Begin Simulation Statistics ----------
simSeconds                                   0.000763                       # Number of seconds simulated (Second)
simTicks                                    762900500                       # Number of ticks simulated (Tick)
finalTick                                   762900500                       # Number of ticks from beginning of simulation (restored from checkpoints and never reset) (Tick)
simFreq                                  1000000000000                       # The number of ticks per simulated second ((Tick/Second))
hostSeconds                                      7.27                       # Real time elapsed on the host (Second)
hostTickRate                                104871260                       # The number of ticks simulated per host second (ticks/s) ((Tick/Second))
hostMemory                                    1231416                       # Number of bytes of host memory used (Byte)
simInsts                                      1534470                       # Number of instructions simulated (Count)
simOps                                        2676519                       # Number of ops (including micro ops) simulated (Count)
hostInstRate                                   210931                       # Simulator instruction rate (inst/s) ((Count/Second))
hostOpRate                                     367920                       # Simulator op (including micro ops) rate (op/s) ((Count/Second))
system.clk_domain.clock                           500                       # Clock period in ticks (Tick)
system.clk_domain.voltage_domain.voltage            1                       # Voltage in Volts (Volt)
system.cpu.numCycles                          1525802                       # Number of cpu cycles simulated (Cycle)
system.cpu.numWorkItemsStarted                      0                       # Number of work items this cpu started (Count)
system.cpu.numWorkItemsCompleted                    0                       # Number of work items this cpu completed (Count)
system.cpu.instsAdded                         2991829                       # Number of instructions added to the IQ (excludes non-spec) (Count)
system.cpu.nonSpecInstsAdded                     7559                       # Number of non-speculative instructions added to the IQ (Count)
system.cpu.instsIssued                        2893278                       # Number of instructions issued (Count)
system.cpu.squashedInstsIssued                    702                       # Number of squashed instructions issued (Count)
system.cpu.squashedInstsExamined               322863                       # Number of squashed instructions iterated over during squash; mainly for profiling (Count)
system.cpu.squashedOperandsExamined            627388                       # Number of squashed operands that are examined and possibly removed from graph (Count)
system.cpu.squashedNonSpecRemoved                  65                       # Number of squashed non-spec instructions that were removed (Count)
system.cpu.numIssuedDist::samples             1410229                       # Number of insts issued each cycle (Count)
system.cpu.numIssuedDist::mean               2.051637                       # Number of insts issued each cycle (Count)
system.cpu.numIssuedDist::stdev              2.245363                       # Number of insts issued each cycle (Count)
system.cpu.numIssuedDist::underflows                0      0.00%      0.00% # Number of insts issued each cycle (Count)
system.cpu.numIssuedDist::0                    545549     38.69%     38.69% # Number of insts issued each cycle (Count)
system.cpu.numIssuedDist::1                    191201     13.56%     52.24% # Number of insts issued each cycle (Count)
system.cpu.numIssuedDist::2                    155348     11.02%     63.26% # Number of insts issued each cycle (Count)
system.cpu.numIssuedDist::3                    172503     12.23%     75.49% # Number of insts issued each cycle (Count)
system.cpu.numIssuedDist::4                     99410      7.05%     82.54% # Number of insts issued each cycle (Count)
system.cpu.numIssuedDist::5                     98481      6.98%     89.52% # Number of insts issued each cycle (Count)
system.cpu.numIssuedDist::6                     72000      5.11%     94.63% # Number of insts issued each cycle (Count)
system.cpu.numIssuedDist::7                     54069      3.83%     98.46% # Number of insts issued each cycle (Count)
system.cpu.numIssuedDist::8                     21668      1.54%    100.00% # Number of insts issued each cycle (Count)
system.cpu.numIssuedDist::overflows                 0      0.00%    100.00% # Number of insts issued each cycle (Count)
system.cpu.numIssuedDist::min_value                 0                       # Number of insts issued each cycle (Count)
system.cpu.numIssuedDist::max_value                 8                       # Number of insts issued each cycle (Count)
system.cpu.numIssuedDist::total               1410229                       # Number of insts issued each cycle (Count)
system.cpu.statFuBusy::No_OpClass                   0      0.00%      0.00% # attempts to use FU when none available (Count)
system.cpu.statFuBusy::IntAlu                   36164     62.50%     62.50% # attempts to use FU when none available (Count)
system.cpu.statFuBusy::IntMult                      0      0.00%     62.50% # attempts to use FU when none available (Count)
system.cpu.statFuBusy::IntDiv                       0      0.00%     62.50% # attempts to use FU when none available (Count)
system.cpu.statFuBusy::FloatAdd                     0      0.00%     62.50% # attempts to use FU when none available (Count)
system.cpu.statFuBusy::FloatCmp                     0      0.00%     62.50% # attempts to use FU when none available (Count)
system.cpu.statFuBusy::FloatCvt                     0      0.00%     62.50% # attempts to use FU when none available (Count)
system.cpu.statFuBusy::FloatMult                    0      0.00%     62.50% # attempts to use FU when none available (Count)
system.cpu.statFuBusy::FloatMultAcc                 0      0.00%     62.50% # attempts to use FU when none available (Count)
system.cpu.statFuBusy::FloatDiv                     0      0.00%     62.50% # attempts to use FU when none available (Count)
system.cpu.statFuBusy::FloatMisc                    0      0.00%     62.50% # attempts to use FU when none available (Count)
system.cpu.statFuBusy::FloatSqrt                    0      0.00%     62.50% # attempts to use FU when none available (Count)
system.cpu.statFuBusy::SimdAdd                      0      0.00%     62.50% # attempts to use FU when none available (Count)
system.cpu.statFuBusy::SimdAddAcc                   0      0.00%     62.50% # attempts to use FU when none available (Count)
system.cpu.statFuBusy::SimdAlu                     24      0.04%     62.54% # attempts to use FU when none available (Count)
system.cpu.statFuBusy::SimdCmp                      0      0.00%     62.54% # attempts to use FU when none available (Count)
system.cpu.statFuBusy::SimdCvt                     56      0.10%     62.64% # attempts to use FU when none available (Count)
system.cpu.statFuBusy::SimdMisc                     4      0.01%     62.64% # attempts to use FU when none available (Count)
system.cpu.statFuBusy::SimdMult                     0      0.00%     62.64% # attempts to use FU when none available (Count)
system.cpu.statFuBusy::SimdMultAcc                  0      0.00%     62.64% # attempts to use FU when none available (Count)
system.cpu.statFuBusy::SimdShift                    5      0.01%     62.65% # attempts to use FU when none available (Count)
system.cpu.statFuBusy::SimdShiftAcc                 0      0.00%     62.65% # attempts to use FU when none available (Count)
system.cpu.statFuBusy::SimdDiv                      0      0.00%     62.65% # attempts to use FU when none available (Count)
system.cpu.statFuBusy::SimdSqrt                     0      0.00%     62.65% # attempts to use FU when none available (Count)
system.cpu.statFuBusy::SimdFloatAdd                 0      0.00%     62.65% # attempts to use FU when none available (Count)
system.cpu.statFuBusy::SimdFloatAlu                 0      0.00%     62.65% # attempts to use FU when none available (Count)
system.cpu.statFuBusy::SimdFloatCmp                 0      0.00%     62.65% # attempts to use FU when none available (Count)
system.cpu.statFuBusy::SimdFloatCvt                 0      0.00%     62.65% # attempts to use FU when none available (Count)
system.cpu.statFuBusy::SimdFloatDiv                 0      0.00%     62.65% # attempts to use FU when none available (Count)
system.cpu.statFuBusy::SimdFloatMisc                0      0.00%     62.65% # attempts to use FU when none available (Count)
system.cpu.statFuBusy::SimdFloatMult                0      0.00%     62.65% # attempts to use FU when none available (Count)
system.cpu.statFuBusy::SimdFloatMultAcc             0      0.00%     62.65% # attempts to use FU when none available (Count)
system.cpu.statFuBusy::SimdFloatSqrt                0      0.00%     62.65% # attempts to use FU when none available (Count)
system.cpu.statFuBusy::SimdReduceAdd                0      0.00%     62.65% # attempts to use FU when none available (Count)
system.cpu.statFuBusy::SimdReduceAlu                0      0.00%     62.65% # attempts to use FU when none available (Count)
system.cpu.statFuBusy::SimdReduceCmp                0      0.00%     62.65% # attempts to use FU when none available (Count)
system.cpu.statFuBusy::SimdFloatReduceAdd            0      0.00%     62.65% # attempts to use FU when none available (Count)
system.cpu.statFuBusy::SimdFloatReduceCmp            0      0.00%     62.65% # attempts to use FU when none available (Count)
system.cpu.statFuBusy::SimdAes                      0      0.00%     62.65% # attempts to use FU when none available (Count)
system.cpu.statFuBusy::SimdAesMix                   0      0.00%     62.65% # attempts to use FU when none available (Count)
system.cpu.statFuBusy::SimdSha1Hash                 0      0.00%     62.65% # attempts to use FU when none available (Count)
system.cpu.statFuBusy::SimdSha1Hash2                0      0.00%     62.65% # attempts to use FU when none available (Count)
system.cpu.statFuBusy::SimdSha256Hash               0      0.00%     62.65% # attempts to use FU when none available (Count)
system.cpu.statFuBusy::SimdSha256Hash2              0      0.00%     62.65% # attempts to use FU when none available (Count)
system.cpu.statFuBusy::SimdShaSigma2                0      0.00%     62.65% # attempts to use FU when none available (Count)
system.cpu.statFuBusy::SimdShaSigma3                0      0.00%     62.65% # attempts to use FU when none available (Count)
system.cpu.statFuBusy::SimdPredAlu                  0      0.00%     62.65% # attempts to use FU when none available (Count)
system.cpu.statFuBusy::MemRead                  18283     31.60%     94.25% # attempts to use FU when none available (Count)
system.cpu.statFuBusy::MemWrite                  3175      5.49%     99.74% # attempts to use FU when none available (Count)
system.cpu.statFuBusy::FloatMemRead                63      0.11%     99.85% # attempts to use FU when none available (Count)
system.cpu.statFuBusy::FloatMemWrite               89      0.15%    100.00% # attempts to use FU when none available (Count)
system.cpu.statFuBusy::IprAccess                    0      0.00%    100.00% # attempts to use FU when none available (Count)
system.cpu.statFuBusy::InstPrefetch                 0      0.00%    100.00% # attempts to use FU when none available (Count)
system.cpu.statIssuedInstType_0::No_OpClass        32125      1.11%      1.11% # Number of instructions issued per FU type, per thread (Count)
system.cpu.statIssuedInstType_0::IntAlu       1994481     68.93%     70.05% # Number of instructions issued per FU type, per thread (Count)
system.cpu.statIssuedInstType_0::IntMult        38822      1.34%     71.39% # Number of instructions issued per FU type, per thread (Count)
system.cpu.statIssuedInstType_0::IntDiv          1853      0.06%     71.45% # Number of instructions issued per FU type, per thread (Count)
system.cpu.statIssuedInstType_0::FloatAdd         3483      0.12%     71.57% # Number of instructions issued per FU type, per thread (Count)
system.cpu.statIssuedInstType_0::FloatCmp            0      0.00%     71.57% # Number of instructions issued per FU type, per thread (Count)
system.cpu.statIssuedInstType_0::FloatCvt           32      0.00%     71.57% # Number of instructions issued per FU type, per thread (Count)
system.cpu.statIssuedInstType_0::FloatMult            0      0.00%     71.57% # Number of instructions issued per FU type, per thread (Count)
system.cpu.statIssuedInstType_0::FloatMultAcc            0      0.00%     71.57% # Number of instructions issued per FU type, per thread (Count)
system.cpu.statIssuedInstType_0::FloatDiv            0      0.00%     71.57% # Number of instructions issued per FU type, per thread (Count)
system.cpu.statIssuedInstType_0::FloatMisc            0      0.00%     71.57% # Number of instructions issued per FU type, per thread (Count)
system.cpu.statIssuedInstType_0::FloatSqrt            0      0.00%     71.57% # Number of instructions issued per FU type, per thread (Count)
system.cpu.statIssuedInstType_0::SimdAdd          872      0.03%     71.60% # Number of instructions issued per FU type, per thread (Count)
system.cpu.statIssuedInstType_0::SimdAddAcc            0      0.00%     71.60% # Number of instructions issued per FU type, per thread (Count)
system.cpu.statIssuedInstType_0::SimdAlu        12886      0.45%     72.05% # Number of instructions issued per FU type, per thread (Count)
system.cpu.statIssuedInstType_0::SimdCmp            0      0.00%     72.05% # Number of instructions issued per FU type, per thread (Count)
system.cpu.statIssuedInstType_0::SimdCvt        12209      0.42%     72.47% # Number of instructions issued per FU type, per thread (Count)
system.cpu.statIssuedInstType_0::SimdMisc        24393      0.84%     73.31% # Number of instructions issued per FU type, per thread (Count)
system.cpu.statIssuedInstType_0::SimdMult            0      0.00%     73.31% # Number of instructions issued per FU type, per thread (Count)
system.cpu.statIssuedInstType_0::SimdMultAcc            0      0.00%     73.31% # Number of instructions issued per FU type, per thread (Count)
system.cpu.statIssuedInstType_0::SimdShift          718      0.02%     73.34% # Number of instructions issued per FU type, per thread (Count)
system.cpu.statIssuedInstType_0::SimdShiftAcc            0      0.00%     73.34% # Number of instructions issued per FU type, per thread (Count)
system.cpu.statIssuedInstType_0::SimdDiv            0      0.00%     73.34% # Number of instructions issued per FU type, per thread (Count)
system.cpu.statIssuedInstType_0::SimdSqrt            0      0.00%     73.34% # Number of instructions issued per FU type, per thread (Count)
system.cpu.statIssuedInstType_0::SimdFloatAdd            0      0.00%     73.34% # Number of instructions issued per FU type, per thread (Count)
system.cpu.statIssuedInstType_0::SimdFloatAlu            0      0.00%     73.34% # Number of instructions issued per FU type, per thread (Count)
system.cpu.statIssuedInstType_0::SimdFloatCmp            0      0.00%     73.34% # Number of instructions issued per FU type, per thread (Count)
system.cpu.statIssuedInstType_0::SimdFloatCvt          441      0.02%     73.35% # Number of instructions issued per FU type, per thread (Count)
system.cpu.statIssuedInstType_0::SimdFloatDiv            1      0.00%     73.35% # Number of instructions issued per FU type, per thread (Count)
system.cpu.statIssuedInstType_0::SimdFloatMisc            0      0.00%     73.35% # Number of instructions issued per FU type, per thread (Count)
system.cpu.statIssuedInstType_0::SimdFloatMult            0      0.00%     73.35% # Number of instructions issued per FU type, per thread (Count)
system.cpu.statIssuedInstType_0::SimdFloatMultAcc            0      0.00%     73.35% # Number of instructions issued per FU type, per thread (Count)
system.cpu.statIssuedInstType_0::SimdFloatSqrt          111      0.00%     73.36% # Number of instructions issued per FU type, per thread (Count)
system.cpu.statIssuedInstType_0::SimdReduceAdd            0      0.00%     73.36% # Number of instructions issued per FU type, per thread (Count)
system.cpu.statIssuedInstType_0::SimdReduceAlu            0      0.00%     73.36% # Number of instructions issued per FU type, per thread (Count)
system.cpu.statIssuedInstType_0::SimdReduceCmp            0      0.00%     73.36% # Number of instructions issued per FU type, per thread (Count)
system.cpu.statIssuedInstType_0::SimdFloatReduceAdd            0      0.00%     73.36% # Number of instructions issued per FU type, per thread (Count)
system.cpu.statIssuedInstType_0::SimdFloatReduceCmp            0      0.00%     73.36% # Number of instructions issued per FU type, per thread (Count)
system.cpu.statIssuedInstType_0::SimdAes            0      0.00%     73.36% # Number of instructions issued per FU type, per thread (Count)
system.cpu.statIssuedInstType_0::SimdAesMix            0      0.00%     73.36% # Number of instructions issued per FU type, per thread (Count)
system.cpu.statIssuedInstType_0::SimdSha1Hash            0      0.00%     73.36% # Number of instructions issued per FU type, per thread (Count)
system.cpu.statIssuedInstType_0::SimdSha1Hash2            0      0.00%     73.36% # Number of instructions issued per FU type, per thread (Count)
system.cpu.statIssuedInstType_0::SimdSha256Hash            0      0.00%     73.36% # Number of instructions issued per FU type, per thread (Count)
system.cpu.statIssuedInstType_0::SimdSha256Hash2            0      0.00%     73.36% # Number of instructions issued per FU type, per thread (Count)
system.cpu.statIssuedInstType_0::SimdShaSigma2            0      0.00%     73.36% # Number of instructions issued per FU type, per thread (Count)
system.cpu.statIssuedInstType_0::SimdShaSigma3            0      0.00%     73.36% # Number of instructions issued per FU type, per thread (Count)
system.cpu.statIssuedInstType_0::SimdPredAlu            0      0.00%     73.36% # Number of instructions issued per FU type, per thread (Count)
system.cpu.statIssuedInstType_0::MemRead       512197     17.70%     91.06% # Number of instructions issued per FU type, per thread (Count)
system.cpu.statIssuedInstType_0::MemWrite       239221      8.27%     99.33% # Number of instructions issued per FU type, per thread (Count)
system.cpu.statIssuedInstType_0::FloatMemRead        12773      0.44%     99.77% # Number of instructions issued per FU type, per thread (Count)
system.cpu.statIssuedInstType_0::FloatMemWrite         6660      0.23%    100.00% # Number of instructions issued per FU type, per thread (Count)
system.cpu.statIssuedInstType_0::IprAccess            0      0.00%    100.00% # Number of instructions issued per FU type, per thread (Count)
system.cpu.statIssuedInstType_0::InstPrefetch            0      0.00%    100.00% # Number of instructions issued per FU type, per thread (Count)
system.cpu.statIssuedInstType_0::total        2893278                       # Number of instructions issued per FU type, per thread (Count)
system.cpu.issueRate                         1.896234                       # Inst issue rate ((Count/Cycle))
system.cpu.fuBusy                               57863                       # FU busy when requested (Count)
system.cpu.fuBusyRate                        0.019999                       # FU busy rate (busy events/executed inst) ((Count/Count))
system.cpu.intInstQueueReads                  7090081                       # Number of integer instruction queue reads (Count)
system.cpu.intInstQueueWrites                 3230429                       # Number of integer instruction queue writes (Count)
system.cpu.intInstQueueWakeupAccesses         2788238                       # Number of integer instruction queue wakeup accesses (Count)
system.cpu.fpInstQueueReads                    165269                       # Number of floating instruction queue reads (Count)
system.cpu.fpInstQueueWrites                    96857                       # Number of floating instruction queue writes (Count)
system.cpu.fpInstQueueWakeupAccesses            79931                       # Number of floating instruction queue wakeup accesses (Count)
system.cpu.vecInstQueueReads                        0                       # Number of vector instruction queue reads (Count)
system.cpu.vecInstQueueWrites                       0                       # Number of vector instruction queue writes (Count)
system.cpu.vecInstQueueWakeupAccesses               0                       # Number of vector instruction queue wakeup accesses (Count)
system.cpu.intAluAccesses                     2836295                       # Number of integer alu accesses (Count)
system.cpu.fpAluAccesses                        82721                       # Number of floating point alu accesses (Count)
system.cpu.vecAluAccesses                           0                       # Number of vector alu accesses (Count)
system.cpu.numInsts                           2880530                       # Number of executed instructions (Count)
system.cpu.numLoadInsts                        519111                       # Number of load instructions executed (Count)
system.cpu.numSquashedInsts                     12748                       # Number of squashed instructions skipped in execute (Count)
system.cpu.numSwp                                   0                       # Number of swp insts executed (Count)
system.cpu.numNop                                   0                       # Number of nop insts executed (Count)
system.cpu.numRefs                             763095                       # Number of memory reference insts executed (Count)
system.cpu.numBranches                         238013                       # Number of branches executed (Count)
system.cpu.numStoreInsts                       243984                       # Number of stores executed (Count)
system.cpu.numRate                           1.887879                       # Inst execution rate ((Count/Cycle))
system.cpu.timesIdled                            1203                       # Number of times that the entire CPU went into an idle state and unscheduled itself (Count)
system.cpu.idleCycles                          115573                       # Total number of cycles that the CPU has spent unscheduled due to idling (Cycle)
system.cpu.committedInsts                     1534470                       # Number of Instructions Simulated (Count)
system.cpu.committedOps                       2676519                       # Number of Ops (including micro ops) Simulated (Count)
system.cpu.cpi                               0.994351                       # CPI: Cycles Per Instruction ((Cycle/Count))
system.cpu.totalCpi                          0.994351                       # CPI: Total CPI of All Threads ((Cycle/Count))
system.cpu.ipc                               1.005681                       # IPC: Instructions Per Cycle ((Count/Cycle))
system.cpu.totalIpc                          1.005681                       # IPC: Total IPC of All Threads ((Count/Cycle))
system.cpu.intRegfileReads                    3720282                       # Number of integer regfile reads (Count)
system.cpu.intRegfileWrites                   2123223                       # Number of integer regfile writes (Count)
system.cpu.fpRegfileReads                      134117                       # Number of floating regfile reads (Count)
system.cpu.fpRegfileWrites                      67163                       # Number of floating regfile writes (Count)
system.cpu.ccRegfileReads                     1287844                       # number of cc regfile reads (Count)
system.cpu.ccRegfileWrites                     878440                       # number of cc regfile writes (Count)
system.cpu.miscRegfileReads                   1260796                       # number of misc regfile reads (Count)
system.cpu.miscRegfileWrites                       18                       # number of misc regfile writes (Count)
system.cpu.MemDepUnit__0.insertedLoads         539337                       # Number of loads inserted to the mem dependence unit. (Count)
system.cpu.MemDepUnit__0.insertedStores        251094                       # Number of stores inserted to the mem dependence unit. (Count)
system.cpu.MemDepUnit__0.conflictingLoads       218613                       # Number of conflicting loads. (Count)
system.cpu.MemDepUnit__0.conflictingStores        60413                       # Number of conflicting stores. (Count)
system.cpu.MemDepUnit__1.insertedLoads              0                       # Number of loads inserted to the mem dependence unit. (Count)
system.cpu.MemDepUnit__1.insertedStores             0                       # Number of stores inserted to the mem dependence unit. (Count)
system.cpu.MemDepUnit__1.conflictingLoads            0                       # Number of conflicting loads. (Count)
system.cpu.MemDepUnit__1.conflictingStores            0                       # Number of conflicting stores. (Count)
system.cpu.MemDepUnit__2.insertedLoads              0                       # Number of loads inserted to the mem dependence unit. (Count)
system.cpu.MemDepUnit__2.insertedStores             0                       # Number of stores inserted to the mem dependence unit. (Count)
system.cpu.MemDepUnit__2.conflictingLoads            0                       # Number of conflicting loads. (Count)
system.cpu.MemDepUnit__2.conflictingStores            0                       # Number of conflicting stores. (Count)
system.cpu.MemDepUnit__3.insertedLoads              0                       # Number of loads inserted to the mem dependence unit. (Count)
system.cpu.MemDepUnit__3.insertedStores             0                       # Number of stores inserted to the mem dependence unit. (Count)
system.cpu.MemDepUnit__3.conflictingLoads            0                       # Number of conflicting loads. (Count)
system.cpu.MemDepUnit__3.conflictingStores            0                       # Number of conflicting stores. (Count)
system.cpu.branchPred.lookups                  277609                       # Number of BP lookups (Count)
system.cpu.branchPred.condPredicted            215532                       # Number of conditional branches predicted (Count)
system.cpu.branchPred.condIncorrect              5069                       # Number of conditional branches incorrect (Count)
system.cpu.branchPred.BTBLookups               136002                       # Number of BTB lookups (Count)
system.cpu.branchPred.BTBUpdates                 2886                       # Number of BTB updates (Count)
system.cpu.branchPred.BTBHits                  133591                       # Number of BTB hits (Count)
system.cpu.branchPred.BTBHitRatio            0.982272                       # BTB Hit Ratio (Ratio)
system.cpu.branchPred.RASUsed                   18209                       # Number of times the RAS was used to get a target. (Count)
system.cpu.branchPred.RASIncorrect                  3                       # Number of incorrect RAS predictions. (Count)
system.cpu.branchPred.indirectLookups           15536                       # Number of indirect predictor lookups. (Count)
system.cpu.branchPred.indirectHits              14102                       # Number of indirect target hits. (Count)
system.cpu.branchPred.indirectMisses             1434                       # Number of indirect misses. (Count)
system.cpu.branchPred.indirectMispredicted          445                       # Number of mispredicted indirect branches. (Count)
system.cpu.commit.commitSquashedInsts          320881                       # The number of squashed insts skipped by commit (Count)
system.cpu.commit.commitNonSpecStalls            7494                       # The number of times commit has been forced to stall to communicate backwards (Count)
system.cpu.commit.branchMispredicts              4677                       # The number of times a branch was mispredicted (Count)
system.cpu.commit.numCommittedDist::samples      1363537                       # Number of insts commited each cycle (Count)
system.cpu.commit.numCommittedDist::mean     1.962924                       # Number of insts commited each cycle (Count)
system.cpu.commit.numCommittedDist::stdev     2.787917                       # Number of insts commited each cycle (Count)
system.cpu.commit.numCommittedDist::underflows            0      0.00%      0.00% # Number of insts commited each cycle (Count)
system.cpu.commit.numCommittedDist::0          660454     48.44%     48.44% # Number of insts commited each cycle (Count)
system.cpu.commit.numCommittedDist::1          227136     16.66%     65.09% # Number of insts commited each cycle (Count)
system.cpu.commit.numCommittedDist::2          103917      7.62%     72.72% # Number of insts commited each cycle (Count)
system.cpu.commit.numCommittedDist::3           94234      6.91%     79.63% # Number of insts commited each cycle (Count)
system.cpu.commit.numCommittedDist::4           22847      1.68%     81.30% # Number of insts commited each cycle (Count)
system.cpu.commit.numCommittedDist::5           39845      2.92%     84.22% # Number of insts commited each cycle (Count)
system.cpu.commit.numCommittedDist::6           10795      0.79%     85.02% # Number of insts commited each cycle (Count)
system.cpu.commit.numCommittedDist::7           31008      2.27%     87.29% # Number of insts commited each cycle (Count)
system.cpu.commit.numCommittedDist::8          173301     12.71%    100.00% # Number of insts commited each cycle (Count)
system.cpu.commit.numCommittedDist::overflows            0      0.00%    100.00% # Number of insts commited each cycle (Count)
system.cpu.commit.numCommittedDist::min_value            0                       # Number of insts commited each cycle (Count)
system.cpu.commit.numCommittedDist::max_value            8                       # Number of insts commited each cycle (Count)
system.cpu.commit.numCommittedDist::total      1363537                       # Number of insts commited each cycle (Count)
system.cpu.commit.instsCommitted              1534470                       # Number of instructions committed (Count)
system.cpu.commit.opsCommitted                2676519                       # Number of ops (including micro ops) committed (Count)
system.cpu.commit.memRefs                      705988                       # Number of memory references committed (Count)
system.cpu.commit.loads                        470413                       # Number of loads committed (Count)
system.cpu.commit.amos                              0                       # Number of atomic instructions committed (Count)
system.cpu.commit.membars                        4984                       # Number of memory barriers committed (Count)
system.cpu.commit.branches                     228152                       # Number of branches committed (Count)
system.cpu.commit.vectorInstructions                0                       # Number of committed Vector instructions. (Count)
system.cpu.commit.floating                      74465                       # Number of committed floating point instructions. (Count)
system.cpu.commit.integer                     2588828                       # Number of committed integer instructions. (Count)
system.cpu.commit.functionCalls                 15967                       # Number of function calls committed. (Count)
system.cpu.commit.committedInstType_0::No_OpClass        28985      1.08%      1.08% # Class of committed instruction (Count)
system.cpu.commit.committedInstType_0::IntAlu      1849962     69.12%     70.20% # Class of committed instruction (Count)
system.cpu.commit.committedInstType_0::IntMult        38739      1.45%     71.65% # Class of committed instruction (Count)
system.cpu.commit.committedInstType_0::IntDiv         1653      0.06%     71.71% # Class of committed instruction (Count)
system.cpu.commit.committedInstType_0::FloatAdd         3158      0.12%     71.83% # Class of committed instruction (Count)
system.cpu.commit.committedInstType_0::FloatCmp            0      0.00%     71.83% # Class of committed instruction (Count)
system.cpu.commit.committedInstType_0::FloatCvt           32      0.00%     71.83% # Class of committed instruction (Count)
system.cpu.commit.committedInstType_0::FloatMult            0      0.00%     71.83% # Class of committed instruction (Count)
system.cpu.commit.committedInstType_0::FloatMultAcc            0      0.00%     71.83% # Class of committed instruction (Count)
system.cpu.commit.committedInstType_0::FloatDiv            0      0.00%     71.83% # Class of committed instruction (Count)
system.cpu.commit.committedInstType_0::FloatMisc            0      0.00%     71.83% # Class of committed instruction (Count)
system.cpu.commit.committedInstType_0::FloatSqrt            0      0.00%     71.83% # Class of committed instruction (Count)
system.cpu.commit.committedInstType_0::SimdAdd          526      0.02%     71.85% # Class of committed instruction (Count)
system.cpu.commit.committedInstType_0::SimdAddAcc            0      0.00%     71.85% # Class of committed instruction (Count)
system.cpu.commit.committedInstType_0::SimdAlu        11633      0.43%     72.28% # Class of committed instruction (Count)
system.cpu.commit.committedInstType_0::SimdCmp            0      0.00%     72.28% # Class of committed instruction (Count)
system.cpu.commit.committedInstType_0::SimdCvt        11122      0.42%     72.70% # Class of committed instruction (Count)
system.cpu.commit.committedInstType_0::SimdMisc        23880      0.89%     73.59% # Class of committed instruction (Count)
system.cpu.commit.committedInstType_0::SimdMult            0      0.00%     73.59% # Class of committed instruction (Count)
system.cpu.commit.committedInstType_0::SimdMultAcc            0      0.00%     73.59% # Class of committed instruction (Count)
system.cpu.commit.committedInstType_0::SimdShift          342      0.01%     73.60% # Class of committed instruction (Count)
system.cpu.commit.committedInstType_0::SimdShiftAcc            0      0.00%     73.60% # Class of committed instruction (Count)
system.cpu.commit.committedInstType_0::SimdDiv            0      0.00%     73.60% # Class of committed instruction (Count)
system.cpu.commit.committedInstType_0::SimdSqrt            0      0.00%     73.60% # Class of committed instruction (Count)
system.cpu.commit.committedInstType_0::SimdFloatAdd            0      0.00%     73.60% # Class of committed instruction (Count)
system.cpu.commit.committedInstType_0::SimdFloatAlu            0      0.00%     73.60% # Class of committed instruction (Count)
system.cpu.commit.committedInstType_0::SimdFloatCmp            0      0.00%     73.60% # Class of committed instruction (Count)
system.cpu.commit.committedInstType_0::SimdFloatCvt          399      0.01%     73.62% # Class of committed instruction (Count)
system.cpu.commit.committedInstType_0::SimdFloatDiv            1      0.00%     73.62% # Class of committed instruction (Count)
system.cpu.commit.committedInstType_0::SimdFloatMisc            0      0.00%     73.62% # Class of committed instruction (Count)
system.cpu.commit.committedInstType_0::SimdFloatMult            0      0.00%     73.62% # Class of committed instruction (Count)
system.cpu.commit.committedInstType_0::SimdFloatMultAcc            0      0.00%     73.62% # Class of committed instruction (Count)
system.cpu.commit.committedInstType_0::SimdFloatSqrt           99      0.00%     73.62% # Class of committed instruction (Count)
system.cpu.commit.committedInstType_0::SimdReduceAdd            0      0.00%     73.62% # Class of committed instruction (Count)
system.cpu.commit.committedInstType_0::SimdReduceAlu            0      0.00%     73.62% # Class of committed instruction (Count)
system.cpu.commit.committedInstType_0::SimdReduceCmp            0      0.00%     73.62% # Class of committed instruction (Count)
system.cpu.commit.committedInstType_0::SimdFloatReduceAdd            0      0.00%     73.62% # Class of committed instruction (Count)
system.cpu.commit.committedInstType_0::SimdFloatReduceCmp            0      0.00%     73.62% # Class of committed instruction (Count)
system.cpu.commit.committedInstType_0::SimdAes            0      0.00%     73.62% # Class of committed instruction (Count)
system.cpu.commit.committedInstType_0::SimdAesMix            0      0.00%     73.62% # Class of committed instruction (Count)
system.cpu.commit.committedInstType_0::SimdSha1Hash            0      0.00%     73.62% # Class of committed instruction (Count)
system.cpu.commit.committedInstType_0::SimdSha1Hash2            0      0.00%     73.62% # Class of committed instruction (Count)
system.cpu.commit.committedInstType_0::SimdSha256Hash            0      0.00%     73.62% # Class of committed instruction (Count)
system.cpu.commit.committedInstType_0::SimdSha256Hash2            0      0.00%     73.62% # Class of committed instruction (Count)
system.cpu.commit.committedInstType_0::SimdShaSigma2            0      0.00%     73.62% # Class of committed instruction (Count)
system.cpu.commit.committedInstType_0::SimdShaSigma3            0      0.00%     73.62% # Class of committed instruction (Count)
system.cpu.commit.committedInstType_0::SimdPredAlu            0      0.00%     73.62% # Class of committed instruction (Count)
system.cpu.commit.committedInstType_0::MemRead       461271     17.23%     90.86% # Class of committed instruction (Count)
system.cpu.commit.committedInstType_0::MemWrite       229249      8.57%     99.42% # Class of committed instruction (Count)
system.cpu.commit.committedInstType_0::FloatMemRead         9142      0.34%     99.76% # Class of committed instruction (Count)
system.cpu.commit.committedInstType_0::FloatMemWrite         6326      0.24%    100.00% # Class of committed instruction (Count)
system.cpu.commit.committedInstType_0::IprAccess            0      0.00%    100.00% # Class of committed instruction (Count)
system.cpu.commit.committedInstType_0::InstPrefetch            0      0.00%    100.00% # Class of committed instruction (Count)
system.cpu.commit.committedInstType_0::total      2676519                       # Class of committed instruction (Count)
system.cpu.commit.commitEligibleSamples        173301                       # number cycles where commit BW limit reached (Cycle)
system.cpu.dcache.demandHits::cpu.data         555498                       # number of demand (read+write) hits (Count)
system.cpu.dcache.demandHits::total            555498                       # number of demand (read+write) hits (Count)
system.cpu.dcache.overallHits::cpu.data        555498                       # number of overall hits (Count)
system.cpu.dcache.overallHits::total           555498                       # number of overall hits (Count)
system.cpu.dcache.demandMisses::cpu.data        18646                       # number of demand (read+write) misses (Count)
system.cpu.dcache.demandMisses::total           18646                       # number of demand (read+write) misses (Count)
system.cpu.dcache.overallMisses::cpu.data        18646                       # number of overall misses (Count)
system.cpu.dcache.overallMisses::total          18646                       # number of overall misses (Count)
system.cpu.dcache.demandMissLatency::cpu.data    668179999                       # number of demand (read+write) miss ticks (Tick)
system.cpu.dcache.demandMissLatency::total    668179999                       # number of demand (read+write) miss ticks (Tick)
system.cpu.dcache.overallMissLatency::cpu.data    668179999                       # number of overall miss ticks (Tick)
system.cpu.dcache.overallMissLatency::total    668179999                       # number of overall miss ticks (Tick)
system.cpu.dcache.demandAccesses::cpu.data       574144                       # number of demand (read+write) accesses (Count)
system.cpu.dcache.demandAccesses::total        574144                       # number of demand (read+write) accesses (Count)
system.cpu.dcache.overallAccesses::cpu.data       574144                       # number of overall (read+write) accesses (Count)
system.cpu.dcache.overallAccesses::total       574144                       # number of overall (read+write) accesses (Count)
system.cpu.dcache.demandMissRate::cpu.data     0.032476                       # miss rate for demand accesses (Ratio)
system.cpu.dcache.demandMissRate::total      0.032476                       # miss rate for demand accesses (Ratio)
system.cpu.dcache.overallMissRate::cpu.data     0.032476                       # miss rate for overall accesses (Ratio)
system.cpu.dcache.overallMissRate::total     0.032476                       # miss rate for overall accesses (Ratio)
system.cpu.dcache.demandAvgMissLatency::cpu.data 35835.031589                       # average overall miss latency in ticks ((Tick/Count))
system.cpu.dcache.demandAvgMissLatency::total 35835.031589                       # average overall miss latency in ticks ((Tick/Count))
system.cpu.dcache.overallAvgMissLatency::cpu.data 35835.031589                       # average overall miss latency ((Tick/Count))
system.cpu.dcache.overallAvgMissLatency::total 35835.031589                       # average overall miss latency ((Tick/Count))
system.cpu.dcache.blockedCycles::no_mshrs        18947                       # number of cycles access was blocked (Cycle)
system.cpu.dcache.blockedCycles::no_targets            4                       # number of cycles access was blocked (Cycle)
system.cpu.dcache.blockedCauses::no_mshrs          488                       # number of times access was blocked (Count)
system.cpu.dcache.blockedCauses::no_targets            1                       # number of times access was blocked (Count)
system.cpu.dcache.avgBlocked::no_mshrs      38.825820                       # average number of cycles each access was blocked ((Cycle/Count))
system.cpu.dcache.avgBlocked::no_targets            4                       # average number of cycles each access was blocked ((Cycle/Count))
system.cpu.dcache.writebacks::writebacks         7925                       # number of writebacks (Count)
system.cpu.dcache.writebacks::total              7925                       # number of writebacks (Count)
system.cpu.dcache.demandMshrHits::cpu.data         8270                       # number of demand (read+write) MSHR hits (Count)
system.cpu.dcache.demandMshrHits::total          8270                       # number of demand (read+write) MSHR hits (Count)
system.cpu.dcache.overallMshrHits::cpu.data         8270                       # number of overall MSHR hits (Count)
system.cpu.dcache.overallMshrHits::total         8270                       # number of overall MSHR hits (Count)
system.cpu.dcache.demandMshrMisses::cpu.data        10376                       # number of demand (read+write) MSHR misses (Count)
system.cpu.dcache.demandMshrMisses::total        10376                       # number of demand (read+write) MSHR misses (Count)
system.cpu.dcache.overallMshrMisses::cpu.data        10376                       # number of overall MSHR misses (Count)
system.cpu.dcache.overallMshrMisses::total        10376                       # number of overall MSHR misses (Count)
system.cpu.dcache.demandMshrMissLatency::cpu.data    329767500                       # number of demand (read+write) MSHR miss ticks (Tick)
system.cpu.dcache.demandMshrMissLatency::total    329767500                       # number of demand (read+write) MSHR miss ticks (Tick)
system.cpu.dcache.overallMshrMissLatency::cpu.data    329767500                       # number of overall MSHR miss ticks (Tick)
system.cpu.dcache.overallMshrMissLatency::total    329767500                       # number of overall MSHR miss ticks (Tick)
system.cpu.dcache.demandMshrMissRate::cpu.data     0.018072                       # mshr miss ratio for demand accesses (Ratio)
system.cpu.dcache.demandMshrMissRate::total     0.018072                       # mshr miss ratio for demand accesses (Ratio)
system.cpu.dcache.overallMshrMissRate::cpu.data     0.018072                       # mshr miss ratio for overall accesses (Ratio)
system.cpu.dcache.overallMshrMissRate::total     0.018072                       # mshr miss ratio for overall accesses (Ratio)
system.cpu.dcache.demandAvgMshrMissLatency::cpu.data 31781.755975                       # average overall mshr miss latency ((Tick/Count))
system.cpu.dcache.demandAvgMshrMissLatency::total 31781.755975                       # average overall mshr miss latency ((Tick/Count))
system.cpu.dcache.overallAvgMshrMissLatency::cpu.data 31781.755975                       # average overall mshr miss latency ((Tick/Count))
system.cpu.dcache.overallAvgMshrMissLatency::total 31781.755975                       # average overall mshr miss latency ((Tick/Count))
system.cpu.dcache.replacements                   9353                       # number of replacements (Count)
system.cpu.dcache.LockedRMWReadReq.hits::cpu.data         2489                       # number of LockedRMWReadReq hits (Count)
system.cpu.dcache.LockedRMWReadReq.hits::total         2489                       # number of LockedRMWReadReq hits (Count)
system.cpu.dcache.LockedRMWReadReq.misses::cpu.data            3                       # number of LockedRMWReadReq misses (Count)
system.cpu.dcache.LockedRMWReadReq.misses::total            3                       # number of LockedRMWReadReq misses (Count)
system.cpu.dcache.LockedRMWReadReq.missLatency::cpu.data       120500                       # number of LockedRMWReadReq miss ticks (Tick)
system.cpu.dcache.LockedRMWReadReq.missLatency::total       120500                       # number of LockedRMWReadReq miss ticks (Tick)
system.cpu.dcache.LockedRMWReadReq.accesses::cpu.data         2492                       # number of LockedRMWReadReq accesses(hits+misses) (Count)
system.cpu.dcache.LockedRMWReadReq.accesses::total         2492                       # number of LockedRMWReadReq accesses(hits+misses) (Count)
system.cpu.dcache.LockedRMWReadReq.missRate::cpu.data     0.001204                       # miss rate for LockedRMWReadReq accesses (Ratio)
system.cpu.dcache.LockedRMWReadReq.missRate::total     0.001204                       # miss rate for LockedRMWReadReq accesses (Ratio)
system.cpu.dcache.LockedRMWReadReq.avgMissLatency::cpu.data 40166.666667                       # average LockedRMWReadReq miss latency ((Tick/Count))
system.cpu.dcache.LockedRMWReadReq.avgMissLatency::total 40166.666667                       # average LockedRMWReadReq miss latency ((Tick/Count))
system.cpu.dcache.LockedRMWReadReq.mshrMisses::cpu.data            3                       # number of LockedRMWReadReq MSHR misses (Count)
system.cpu.dcache.LockedRMWReadReq.mshrMisses::total            3                       # number of LockedRMWReadReq MSHR misses (Count)
system.cpu.dcache.LockedRMWReadReq.mshrMissLatency::cpu.data      9583500                       # number of LockedRMWReadReq MSHR miss ticks (Tick)
system.cpu.dcache.LockedRMWReadReq.mshrMissLatency::total      9583500                       # number of LockedRMWReadReq MSHR miss ticks (Tick)
system.cpu.dcache.LockedRMWReadReq.mshrMissRate::cpu.data     0.001204                       # mshr miss rate for LockedRMWReadReq accesses (Ratio)
system.cpu.dcache.LockedRMWReadReq.mshrMissRate::total     0.001204                       # mshr miss rate for LockedRMWReadReq accesses (Ratio)
system.cpu.dcache.LockedRMWReadReq.avgMshrMissLatency::cpu.data      3194500                       # average LockedRMWReadReq mshr miss latency ((Tick/Count))
system.cpu.dcache.LockedRMWReadReq.avgMshrMissLatency::total      3194500                       # average LockedRMWReadReq mshr miss latency ((Tick/Count))
system.cpu.dcache.LockedRMWWriteReq.hits::cpu.data         2492                       # number of LockedRMWWriteReq hits (Count)
system.cpu.dcache.LockedRMWWriteReq.hits::total         2492                       # number of LockedRMWWriteReq hits (Count)
system.cpu.dcache.LockedRMWWriteReq.accesses::cpu.data         2492                       # number of LockedRMWWriteReq accesses(hits+misses) (Count)
system.cpu.dcache.LockedRMWWriteReq.accesses::total         2492                       # number of LockedRMWWriteReq accesses(hits+misses) (Count)
system.cpu.dcache.ReadReq.hits::cpu.data       330047                       # number of ReadReq hits (Count)
system.cpu.dcache.ReadReq.hits::total          330047                       # number of ReadReq hits (Count)
system.cpu.dcache.ReadReq.misses::cpu.data        10952                       # number of ReadReq misses (Count)
system.cpu.dcache.ReadReq.misses::total         10952                       # number of ReadReq misses (Count)
system.cpu.dcache.ReadReq.missLatency::cpu.data    454713000                       # number of ReadReq miss ticks (Tick)
system.cpu.dcache.ReadReq.missLatency::total    454713000                       # number of ReadReq miss ticks (Tick)
system.cpu.dcache.ReadReq.accesses::cpu.data       340999                       # number of ReadReq accesses(hits+misses) (Count)
system.cpu.dcache.ReadReq.accesses::total       340999                       # number of ReadReq accesses(hits+misses) (Count)
system.cpu.dcache.ReadReq.missRate::cpu.data     0.032117                       # miss rate for ReadReq accesses (Ratio)
system.cpu.dcache.ReadReq.missRate::total     0.032117                       # miss rate for ReadReq accesses (Ratio)
system.cpu.dcache.ReadReq.avgMissLatency::cpu.data 41518.718042                       # average ReadReq miss latency ((Tick/Count))
system.cpu.dcache.ReadReq.avgMissLatency::total 41518.718042                       # average ReadReq miss latency ((Tick/Count))
system.cpu.dcache.ReadReq.mshrHits::cpu.data         8265                       # number of ReadReq MSHR hits (Count)
system.cpu.dcache.ReadReq.mshrHits::total         8265                       # number of ReadReq MSHR hits (Count)
system.cpu.dcache.ReadReq.mshrMisses::cpu.data         2687                       # number of ReadReq MSHR misses (Count)
system.cpu.dcache.ReadReq.mshrMisses::total         2687                       # number of ReadReq MSHR misses (Count)
system.cpu.dcache.ReadReq.mshrMissLatency::cpu.data    124329500                       # number of ReadReq MSHR miss ticks (Tick)
system.cpu.dcache.ReadReq.mshrMissLatency::total    124329500                       # number of ReadReq MSHR miss ticks (Tick)
system.cpu.dcache.ReadReq.mshrMissRate::cpu.data     0.007880                       # mshr miss rate for ReadReq accesses (Ratio)
system.cpu.dcache.ReadReq.mshrMissRate::total     0.007880                       # mshr miss rate for ReadReq accesses (Ratio)
system.cpu.dcache.ReadReq.avgMshrMissLatency::cpu.data 46270.748046                       # average ReadReq mshr miss latency ((Tick/Count))
system.cpu.dcache.ReadReq.avgMshrMissLatency::total 46270.748046                       # average ReadReq mshr miss latency ((Tick/Count))
system.cpu.dcache.WriteReq.hits::cpu.data       225451                       # number of WriteReq hits (Count)
system.cpu.dcache.WriteReq.hits::total         225451                       # number of WriteReq hits (Count)
system.cpu.dcache.WriteReq.misses::cpu.data         7694                       # number of WriteReq misses (Count)
system.cpu.dcache.WriteReq.misses::total         7694                       # number of WriteReq misses (Count)
system.cpu.dcache.WriteReq.missLatency::cpu.data    213466999                       # number of WriteReq miss ticks (Tick)
system.cpu.dcache.WriteReq.missLatency::total    213466999                       # number of WriteReq miss ticks (Tick)
system.cpu.dcache.WriteReq.accesses::cpu.data       233145                       # number of WriteReq accesses(hits+misses) (Count)
system.cpu.dcache.WriteReq.accesses::total       233145                       # number of WriteReq accesses(hits+misses) (Count)
system.cpu.dcache.WriteReq.missRate::cpu.data     0.033001                       # miss rate for WriteReq accesses (Ratio)
system.cpu.dcache.WriteReq.missRate::total     0.033001                       # miss rate for WriteReq accesses (Ratio)
system.cpu.dcache.WriteReq.avgMissLatency::cpu.data 27744.606057                       # average WriteReq miss latency ((Tick/Count))
system.cpu.dcache.WriteReq.avgMissLatency::total 27744.606057                       # average WriteReq miss latency ((Tick/Count))
system.cpu.dcache.WriteReq.mshrHits::cpu.data            5                       # number of WriteReq MSHR hits (Count)
system.cpu.dcache.WriteReq.mshrHits::total            5                       # number of WriteReq MSHR hits (Count)
system.cpu.dcache.WriteReq.mshrMisses::cpu.data         7689                       # number of WriteReq MSHR misses (Count)
system.cpu.dcache.WriteReq.mshrMisses::total         7689                       # number of WriteReq MSHR misses (Count)
system.cpu.dcache.WriteReq.mshrMissLatency::cpu.data    205438000                       # number of WriteReq MSHR miss ticks (Tick)
system.cpu.dcache.WriteReq.mshrMissLatency::total    205438000                       # number of WriteReq MSHR miss ticks (Tick)
system.cpu.dcache.WriteReq.mshrMissRate::cpu.data     0.032979                       # mshr miss rate for WriteReq accesses (Ratio)
system.cpu.dcache.WriteReq.mshrMissRate::total     0.032979                       # mshr miss rate for WriteReq accesses (Ratio)
system.cpu.dcache.WriteReq.avgMshrMissLatency::cpu.data 26718.428924                       # average WriteReq mshr miss latency ((Tick/Count))
system.cpu.dcache.WriteReq.avgMshrMissLatency::total 26718.428924                       # average WriteReq mshr miss latency ((Tick/Count))
system.cpu.dcache.power_state.pwrStateResidencyTicks::UNDEFINED    762900500                       # Cumulative time (in ticks) in various power states (Tick)
system.cpu.dcache.tags.tagsInUse           953.898514                       # Average ticks per tags in use ((Tick/Count))
system.cpu.dcache.tags.totalRefs               570860                       # Total number of references to valid blocks. (Count)
system.cpu.dcache.tags.sampledRefs              10377                       # Sample count of references to valid blocks. (Count)
system.cpu.dcache.tags.avgRefs              55.012046                       # Average number of references to valid blocks. ((Count/Count))
system.cpu.dcache.tags.warmupTick              170500                       # The tick when the warmup percentage was hit. (Tick)
system.cpu.dcache.tags.occupancies::cpu.data   953.898514                       # Average occupied blocks per tick, per requestor ((Count/Tick))
system.cpu.dcache.tags.avgOccs::cpu.data     0.931542                       # Average percentage of cache occupancy ((Ratio/Tick))
system.cpu.dcache.tags.avgOccs::total        0.931542                       # Average percentage of cache occupancy ((Ratio/Tick))
system.cpu.dcache.tags.occupanciesTaskId::1024         1024                       # Occupied blocks per task id (Count)
system.cpu.dcache.tags.ageTaskId_1024::0          100                       # Occupied blocks per task id, per block age (Count)
system.cpu.dcache.tags.ageTaskId_1024::1          410                       # Occupied blocks per task id, per block age (Count)
system.cpu.dcache.tags.ageTaskId_1024::2          514                       # Occupied blocks per task id, per block age (Count)
system.cpu.dcache.tags.ratioOccsTaskId::1024            1                       # Ratio of occupied blocks and all blocks, per task id (Ratio)
system.cpu.dcache.tags.tagAccesses            2326889                       # Number of tag accesses (Count)
system.cpu.dcache.tags.dataAccesses           2326889                       # Number of data accesses (Count)
system.cpu.dcache.tags.power_state.pwrStateResidencyTicks::UNDEFINED    762900500                       # Cumulative time (in ticks) in various power states (Tick)
system.cpu.decode.idleCycles                   265815                       # Number of cycles decode is idle (Cycle)
system.cpu.decode.blockedCycles                670004                       # Number of cycles decode is blocked (Cycle)
system.cpu.decode.runCycles                    365853                       # Number of cycles decode is running (Cycle)
system.cpu.decode.unblockCycles                 98637                       # Number of cycles decode is unblocking (Cycle)
system.cpu.decode.squashCycles                   9920                       # Number of cycles decode is squashing (Cycle)
system.cpu.decode.branchResolved               129707                       # Number of times decode resolved a branch (Count)
system.cpu.decode.branchMispred                   738                       # Number of times decode detected a branch misprediction (Count)
system.cpu.decode.decodedInsts                3082287                       # Number of instructions handled by decode (Count)
system.cpu.decode.squashedInsts                  3455                       # Number of squashed instructions handled by decode (Count)
system.cpu.fetch.icacheStallCycles             322908                       # Number of cycles fetch is stalled on an Icache miss (Cycle)
system.cpu.fetch.insts                        1820292                       # Number of instructions fetch has processed (Count)
system.cpu.fetch.branches                      277609                       # Number of branches that fetch encountered (Count)
system.cpu.fetch.predictedBranches             165902                       # Number of branches that fetch has predicted taken (Count)
system.cpu.fetch.cycles                       1073584                       # Number of cycles fetch has run and was not squashing or blocked (Cycle)
system.cpu.fetch.squashCycles                   21286                       # Number of cycles fetch has spent squashing (Cycle)
system.cpu.fetch.miscStallCycles                  364                       # Number of cycles fetch has spent waiting on interrupts, or bad addresses, or out of MSHRs (Cycle)
system.cpu.fetch.pendingTrapStallCycles          2730                       # Number of stall cycles due to pending traps (Cycle)
system.cpu.fetch.cacheLines                    265372                       # Number of cache lines fetched (Count)
system.cpu.fetch.icacheSquashes                  3765                       # Number of outstanding Icache misses that were squashed (Count)
system.cpu.fetch.nisnDist::samples            1410229                       # Number of instructions fetched each cycle (Total) (Count)
system.cpu.fetch.nisnDist::mean              2.263552                       # Number of instructions fetched each cycle (Total) (Count)
system.cpu.fetch.nisnDist::stdev             3.255134                       # Number of instructions fetched each cycle (Total) (Count)
system.cpu.fetch.nisnDist::underflows               0      0.00%      0.00% # Number of instructions fetched each cycle (Total) (Count)
system.cpu.fetch.nisnDist::0                   871716     61.81%     61.81% # Number of instructions fetched each cycle (Total) (Count)
system.cpu.fetch.nisnDist::1                    27922      1.98%     63.79% # Number of instructions fetched each cycle (Total) (Count)
system.cpu.fetch.nisnDist::2                    55446      3.93%     67.73% # Number of instructions fetched each cycle (Total) (Count)
system.cpu.fetch.nisnDist::3                    30025      2.13%     69.85% # Number of instructions fetched each cycle (Total) (Count)
system.cpu.fetch.nisnDist::4                    54436      3.86%     73.71% # Number of instructions fetched each cycle (Total) (Count)
system.cpu.fetch.nisnDist::5                    48957      3.47%     77.19% # Number of instructions fetched each cycle (Total) (Count)
system.cpu.fetch.nisnDist::6                    29712      2.11%     79.29% # Number of instructions fetched each cycle (Total) (Count)
system.cpu.fetch.nisnDist::7                    13683      0.97%     80.26% # Number of instructions fetched each cycle (Total) (Count)
system.cpu.fetch.nisnDist::8                   278332     19.74%    100.00% # Number of instructions fetched each cycle (Total) (Count)
system.cpu.fetch.nisnDist::overflows                0      0.00%    100.00% # Number of instructions fetched each cycle (Total) (Count)
system.cpu.fetch.nisnDist::min_value                0                       # Number of instructions fetched each cycle (Total) (Count)
system.cpu.fetch.nisnDist::max_value                8                       # Number of instructions fetched each cycle (Total) (Count)
system.cpu.fetch.nisnDist::total              1410229                       # Number of instructions fetched each cycle (Total) (Count)
system.cpu.fetch.branchRate                  0.181943                       # Number of branch fetches per cycle (Ratio)
system.cpu.fetch.rate                        1.193007                       # Number of inst fetches per cycle ((Count/Cycle))
system.cpu.icache.demandHits::cpu.inst         262872                       # number of demand (read+write) hits (Count)
system.cpu.icache.demandHits::total            262872                       # number of demand (read+write) hits (Count)
system.cpu.icache.overallHits::cpu.inst        262872                       # number of overall hits (Count)
system.cpu.icache.overallHits::total           262872                       # number of overall hits (Count)
system.cpu.icache.demandMisses::cpu.inst         2500                       # number of demand (read+write) misses (Count)
system.cpu.icache.demandMisses::total            2500                       # number of demand (read+write) misses (Count)
system.cpu.icache.overallMisses::cpu.inst         2500                       # number of overall misses (Count)
system.cpu.icache.overallMisses::total           2500                       # number of overall misses (Count)
system.cpu.icache.demandMissLatency::cpu.inst    154757000                       # number of demand (read+write) miss ticks (Tick)
system.cpu.icache.demandMissLatency::total    154757000                       # number of demand (read+write) miss ticks (Tick)
system.cpu.icache.overallMissLatency::cpu.inst    154757000                       # number of overall miss ticks (Tick)
system.cpu.icache.overallMissLatency::total    154757000                       # number of overall miss ticks (Tick)
system.cpu.icache.demandAccesses::cpu.inst       265372                       # number of demand (read+write) accesses (Count)
system.cpu.icache.demandAccesses::total        265372                       # number of demand (read+write) accesses (Count)
system.cpu.icache.overallAccesses::cpu.inst       265372                       # number of overall (read+write) accesses (Count)
system.cpu.icache.overallAccesses::total       265372                       # number of overall (read+write) accesses (Count)
system.cpu.icache.demandMissRate::cpu.inst     0.009421                       # miss rate for demand accesses (Ratio)
system.cpu.icache.demandMissRate::total      0.009421                       # miss rate for demand accesses (Ratio)
system.cpu.icache.overallMissRate::cpu.inst     0.009421                       # miss rate for overall accesses (Ratio)
system.cpu.icache.overallMissRate::total     0.009421                       # miss rate for overall accesses (Ratio)
system.cpu.icache.demandAvgMissLatency::cpu.inst 61902.800000                       # average overall miss latency in ticks ((Tick/Count))
system.cpu.icache.demandAvgMissLatency::total 61902.800000                       # average overall miss latency in ticks ((Tick/Count))
system.cpu.icache.overallAvgMissLatency::cpu.inst 61902.800000                       # average overall miss latency ((Tick/Count))
system.cpu.icache.overallAvgMissLatency::total 61902.800000                       # average overall miss latency ((Tick/Count))
system.cpu.icache.blockedCycles::no_mshrs          309                       # number of cycles access was blocked (Cycle)
system.cpu.icache.blockedCycles::no_targets            0                       # number of cycles access was blocked (Cycle)
system.cpu.icache.blockedCauses::no_mshrs            5                       # number of times access was blocked (Count)
system.cpu.icache.blockedCauses::no_targets            0                       # number of times access was blocked (Count)
system.cpu.icache.avgBlocked::no_mshrs      61.800000                       # average number of cycles each access was blocked ((Cycle/Count))
system.cpu.icache.avgBlocked::no_targets          nan                       # average number of cycles each access was blocked ((Cycle/Count))
system.cpu.icache.writebacks::writebacks            2                       # number of writebacks (Count)
system.cpu.icache.writebacks::total                 2                       # number of writebacks (Count)
system.cpu.icache.demandMshrHits::cpu.inst          595                       # number of demand (read+write) MSHR hits (Count)
system.cpu.icache.demandMshrHits::total           595                       # number of demand (read+write) MSHR hits (Count)
system.cpu.icache.overallMshrHits::cpu.inst          595                       # number of overall MSHR hits (Count)
system.cpu.icache.overallMshrHits::total          595                       # number of overall MSHR hits (Count)
system.cpu.icache.demandMshrMisses::cpu.inst         1905                       # number of demand (read+write) MSHR misses (Count)
system.cpu.icache.demandMshrMisses::total         1905                       # number of demand (read+write) MSHR misses (Count)
system.cpu.icache.overallMshrMisses::cpu.inst         1905                       # number of overall MSHR misses (Count)
system.cpu.icache.overallMshrMisses::total         1905                       # number of overall MSHR misses (Count)
system.cpu.icache.demandMshrMissLatency::cpu.inst    121174000                       # number of demand (read+write) MSHR miss ticks (Tick)
system.cpu.icache.demandMshrMissLatency::total    121174000                       # number of demand (read+write) MSHR miss ticks (Tick)
system.cpu.icache.overallMshrMissLatency::cpu.inst    121174000                       # number of overall MSHR miss ticks (Tick)
system.cpu.icache.overallMshrMissLatency::total    121174000                       # number of overall MSHR miss ticks (Tick)
system.cpu.icache.demandMshrMissRate::cpu.inst     0.007179                       # mshr miss ratio for demand accesses (Ratio)
system.cpu.icache.demandMshrMissRate::total     0.007179                       # mshr miss ratio for demand accesses (Ratio)
system.cpu.icache.overallMshrMissRate::cpu.inst     0.007179                       # mshr miss ratio for overall accesses (Ratio)
system.cpu.icache.overallMshrMissRate::total     0.007179                       # mshr miss ratio for overall accesses (Ratio)
system.cpu.icache.demandAvgMshrMissLatency::cpu.inst 63608.398950                       # average overall mshr miss latency ((Tick/Count))
system.cpu.icache.demandAvgMshrMissLatency::total 63608.398950                       # average overall mshr miss latency ((Tick/Count))
system.cpu.icache.overallAvgMshrMissLatency::cpu.inst 63608.398950                       # average overall mshr miss latency ((Tick/Count))
system.cpu.icache.overallAvgMshrMissLatency::total 63608.398950                       # average overall mshr miss latency ((Tick/Count))
system.cpu.icache.replacements                   1646                       # number of replacements (Count)
system.cpu.icache.ReadReq.hits::cpu.inst       262872                       # number of ReadReq hits (Count)
system.cpu.icache.ReadReq.hits::total          262872                       # number of ReadReq hits (Count)
system.cpu.icache.ReadReq.misses::cpu.inst         2500                       # number of ReadReq misses (Count)
system.cpu.icache.ReadReq.misses::total          2500                       # number of ReadReq misses (Count)
system.cpu.icache.ReadReq.missLatency::cpu.inst    154757000                       # number of ReadReq miss ticks (Tick)
system.cpu.icache.ReadReq.missLatency::total    154757000                       # number of ReadReq miss ticks (Tick)
system.cpu.icache.ReadReq.accesses::cpu.inst       265372                       # number of ReadReq accesses(hits+misses) (Count)
system.cpu.icache.ReadReq.accesses::total       265372                       # number of ReadReq accesses(hits+misses) (Count)
system.cpu.icache.ReadReq.missRate::cpu.inst     0.009421                       # miss rate for ReadReq accesses (Ratio)
system.cpu.icache.ReadReq.missRate::total     0.009421                       # miss rate for ReadReq accesses (Ratio)
system.cpu.icache.ReadReq.avgMissLatency::cpu.inst 61902.800000                       # average ReadReq miss latency ((Tick/Count))
system.cpu.icache.ReadReq.avgMissLatency::total 61902.800000                       # average ReadReq miss latency ((Tick/Count))
system.cpu.icache.ReadReq.mshrHits::cpu.inst          595                       # number of ReadReq MSHR hits (Count)
system.cpu.icache.ReadReq.mshrHits::total          595                       # number of ReadReq MSHR hits (Count)
system.cpu.icache.ReadReq.mshrMisses::cpu.inst         1905                       # number of ReadReq MSHR misses (Count)
system.cpu.icache.ReadReq.mshrMisses::total         1905                       # number of ReadReq MSHR misses (Count)
system.cpu.icache.ReadReq.mshrMissLatency::cpu.inst    121174000                       # number of ReadReq MSHR miss ticks (Tick)
system.cpu.icache.ReadReq.mshrMissLatency::total    121174000                       # number of ReadReq MSHR miss ticks (Tick)
system.cpu.icache.ReadReq.mshrMissRate::cpu.inst     0.007179                       # mshr miss rate for ReadReq accesses (Ratio)
system.cpu.icache.ReadReq.mshrMissRate::total     0.007179                       # mshr miss rate for ReadReq accesses (Ratio)
system.cpu.icache.ReadReq.avgMshrMissLatency::cpu.inst 63608.398950                       # average ReadReq mshr miss latency ((Tick/Count))
system.cpu.icache.ReadReq.avgMshrMissLatency::total 63608.398950                       # average ReadReq mshr miss latency ((Tick/Count))
system.cpu.icache.power_state.pwrStateResidencyTicks::UNDEFINED    762900500                       # Cumulative time (in ticks) in various power states (Tick)
system.cpu.icache.tags.tagsInUse           251.725856                       # Average ticks per tags in use ((Tick/Count))
system.cpu.icache.tags.totalRefs               264776                       # Total number of references to valid blocks. (Count)
system.cpu.icache.tags.sampledRefs               1904                       # Sample count of references to valid blocks. (Count)
system.cpu.icache.tags.avgRefs             139.063025                       # Average number of references to valid blocks. ((Count/Count))
system.cpu.icache.tags.warmupTick               82000                       # The tick when the warmup percentage was hit. (Tick)
system.cpu.icache.tags.occupancies::cpu.inst   251.725856                       # Average occupied blocks per tick, per requestor ((Count/Tick))
system.cpu.icache.tags.avgOccs::cpu.inst     0.983304                       # Average percentage of cache occupancy ((Ratio/Tick))
system.cpu.icache.tags.avgOccs::total        0.983304                       # Average percentage of cache occupancy ((Ratio/Tick))
system.cpu.icache.tags.occupanciesTaskId::1024          256                       # Occupied blocks per task id (Count)
system.cpu.icache.tags.ageTaskId_1024::0          170                       # Occupied blocks per task id, per block age (Count)
system.cpu.icache.tags.ageTaskId_1024::1           22                       # Occupied blocks per task id, per block age (Count)
system.cpu.icache.tags.ageTaskId_1024::2           64                       # Occupied blocks per task id, per block age (Count)
system.cpu.icache.tags.ratioOccsTaskId::1024            1                       # Ratio of occupied blocks and all blocks, per task id (Ratio)
system.cpu.icache.tags.tagAccesses            1063392                       # Number of tag accesses (Count)
system.cpu.icache.tags.dataAccesses           1063392                       # Number of data accesses (Count)
system.cpu.icache.tags.power_state.pwrStateResidencyTicks::UNDEFINED    762900500                       # Cumulative time (in ticks) in various power states (Tick)
system.cpu.iew.idleCycles                           0                       # Number of cycles IEW is idle (Cycle)
system.cpu.iew.squashCycles                      9920                       # Number of cycles IEW is squashing (Cycle)
system.cpu.iew.blockCycles                     156635                       # Number of cycles IEW is blocking (Cycle)
system.cpu.iew.unblockCycles                    11722                       # Number of cycles IEW is unblocking (Cycle)
system.cpu.iew.dispatchedInsts                2999388                       # Number of instructions dispatched to IQ (Count)
system.cpu.iew.dispSquashedInsts                  311                       # Number of squashed instructions skipped by dispatch (Count)
system.cpu.iew.dispLoadInsts                   539337                       # Number of dispatched load instructions (Count)
system.cpu.iew.dispStoreInsts                  251094                       # Number of dispatched store instructions (Count)
system.cpu.iew.dispNonSpecInsts                  2534                       # Number of dispatched non-speculative instructions (Count)
system.cpu.iew.iqFullEvents                      5026                       # Number of times the IQ has become full, causing a stall (Count)
system.cpu.iew.lsqFullEvents                     4966                       # Number of times the LSQ has become full, causing a stall (Count)
system.cpu.iew.memOrderViolationEvents           5046                       # Number of memory order violations (Count)
system.cpu.iew.predictedTakenIncorrect           1857                       # Number of branches that were predicted taken incorrectly (Count)
system.cpu.iew.predictedNotTakenIncorrect         3445                       # Number of branches that were predicted not taken incorrectly (Count)
system.cpu.iew.branchMispredicts                 5302                       # Number of branch mispredicts detected at execute (Count)
system.cpu.iew.instsToCommit                  2874950                       # Cumulative count of insts sent to commit (Count)
system.cpu.iew.writebackCount                 2868169                       # Cumulative count of insts written-back (Count)
system.cpu.iew.producerInst                   2133174                       # Number of instructions producing a value (Count)
system.cpu.iew.consumerInst                   3462009                       # Number of instructions consuming a value (Count)
system.cpu.iew.wbRate                        1.879778                       # Insts written-back per cycle ((Count/Cycle))
system.cpu.iew.wbFanout                      0.616167                       # Average fanout of values written-back ((Count/Count))
system.cpu.interrupts.clk_domain.clock           8000                       # Clock period in ticks (Tick)
system.cpu.l2cache.demandHits::cpu.inst           305                       # number of demand (read+write) hits (Count)
system.cpu.l2cache.demandHits::cpu.data          7002                       # number of demand (read+write) hits (Count)
system.cpu.l2cache.demandHits::total             7307                       # number of demand (read+write) hits (Count)
system.cpu.l2cache.overallHits::cpu.inst          305                       # number of overall hits (Count)
system.cpu.l2cache.overallHits::cpu.data         7002                       # number of overall hits (Count)
system.cpu.l2cache.overallHits::total            7307                       # number of overall hits (Count)
system.cpu.l2cache.demandMisses::cpu.inst         1599                       # number of demand (read+write) misses (Count)
system.cpu.l2cache.demandMisses::cpu.data         3373                       # number of demand (read+write) misses (Count)
system.cpu.l2cache.demandMisses::total           4972                       # number of demand (read+write) misses (Count)
system.cpu.l2cache.overallMisses::cpu.inst         1599                       # number of overall misses (Count)
system.cpu.l2cache.overallMisses::cpu.data         3373                       # number of overall misses (Count)
system.cpu.l2cache.overallMisses::total          4972                       # number of overall misses (Count)
system.cpu.l2cache.demandMissLatency::cpu.inst    115097000                       # number of demand (read+write) miss ticks (Tick)
system.cpu.l2cache.demandMissLatency::cpu.data    240683500                       # number of demand (read+write) miss ticks (Tick)
system.cpu.l2cache.demandMissLatency::total    355780500                       # number of demand (read+write) miss ticks (Tick)
system.cpu.l2cache.overallMissLatency::cpu.inst    115097000                       # number of overall miss ticks (Tick)
system.cpu.l2cache.overallMissLatency::cpu.data    240683500                       # number of overall miss ticks (Tick)
system.cpu.l2cache.overallMissLatency::total    355780500                       # number of overall miss ticks (Tick)
system.cpu.l2cache.demandAccesses::cpu.inst         1904                       # number of demand (read+write) accesses (Count)
system.cpu.l2cache.demandAccesses::cpu.data        10375                       # number of demand (read+write) accesses (Count)
system.cpu.l2cache.demandAccesses::total        12279                       # number of demand (read+write) accesses (Count)
system.cpu.l2cache.overallAccesses::cpu.inst         1904                       # number of overall (read+write) accesses (Count)
system.cpu.l2cache.overallAccesses::cpu.data        10375                       # number of overall (read+write) accesses (Count)
system.cpu.l2cache.overallAccesses::total        12279                       # number of overall (read+write) accesses (Count)
system.cpu.l2cache.demandMissRate::cpu.inst     0.839811                       # miss rate for demand accesses (Ratio)
system.cpu.l2cache.demandMissRate::cpu.data     0.325108                       # miss rate for demand accesses (Ratio)
system.cpu.l2cache.demandMissRate::total     0.404919                       # miss rate for demand accesses (Ratio)
system.cpu.l2cache.overallMissRate::cpu.inst     0.839811                       # miss rate for overall accesses (Ratio)
system.cpu.l2cache.overallMissRate::cpu.data     0.325108                       # miss rate for overall accesses (Ratio)
system.cpu.l2cache.overallMissRate::total     0.404919                       # miss rate for overall accesses (Ratio)
system.cpu.l2cache.demandAvgMissLatency::cpu.inst 71980.612883                       # average overall miss latency in ticks ((Tick/Count))
system.cpu.l2cache.demandAvgMissLatency::cpu.data 71355.914616                       # average overall miss latency in ticks ((Tick/Count))
[...]
system.mem_ctrl.dram.numReads::cpu.inst          1598                       # Number of read requests responded to by this memory (Count)
system.mem_ctrl.dram.numReads::cpu.data          3373                       # Number of read requests responded to by this memory (Count)
system.mem_ctrl.dram.numReads::total             4971                       # Number of read requests responded to by this memory (Count)
system.mem_ctrl.dram.numWrites::writebacks           90                       # Number of write requests responded to by this memory (Count)
system.mem_ctrl.dram.numWrites::total              90                       # Number of write requests responded to by this memory (Count)
system.mem_ctrl.dram.bwRead::cpu.inst       134056800                       # Total read bandwidth from this memory ((Byte/Second))
system.mem_ctrl.dram.bwRead::cpu.data       282962195                       # Total read bandwidth from this memory ((Byte/Second))
system.mem_ctrl.dram.bwRead::total          417018995                       # Total read bandwidth from this memory ((Byte/Second))
system.mem_ctrl.dram.bwInstRead::cpu.inst    134056800                       # Instruction read bandwidth from this memory ((Byte/Second))
system.mem_ctrl.dram.bwInstRead::total      134056800                       # Instruction read bandwidth from this memory ((Byte/Second))
system.mem_ctrl.dram.bwWrite::writebacks      7550133                       # Write bandwidth from this memory ((Byte/Second))
system.mem_ctrl.dram.bwWrite::total           7550133                       # Write bandwidth from this memory ((Byte/Second))
system.mem_ctrl.dram.bwTotal::writebacks      7550133                       # Total bandwidth to/from this memory ((Byte/Second))
system.mem_ctrl.dram.bwTotal::cpu.inst      134056800                       # Total bandwidth to/from this memory ((Byte/Second))
system.mem_ctrl.dram.bwTotal::cpu.data      282962195                       # Total bandwidth to/from this memory ((Byte/Second))
system.mem_ctrl.dram.bwTotal::total         424569128                       # Total bandwidth to/from this memory ((Byte/Second))
system.mem_ctrl.dram.readBursts                  4968                       # Number of DRAM read bursts (Count)
system.mem_ctrl.dram.writeBursts                   64                       # Number of DRAM write bursts (Count)
system.mem_ctrl.dram.perBankRdBursts::0           459                       # Per bank write bursts (Count)
system.mem_ctrl.dram.perBankRdBursts::1           444                       # Per bank write bursts (Count)
system.mem_ctrl.dram.perBankRdBursts::2           426                       # Per bank write bursts (Count)
system.mem_ctrl.dram.perBankRdBursts::3           437                       # Per bank write bursts (Count)
system.mem_ctrl.dram.perBankRdBursts::4           311                       # Per bank write bursts (Count)
system.mem_ctrl.dram.perBankRdBursts::5           169                       # Per bank write bursts (Count)
system.mem_ctrl.dram.perBankRdBursts::6           182                       # Per bank write bursts (Count)
system.mem_ctrl.dram.perBankRdBursts::7           260                       # Per bank write bursts (Count)
system.mem_ctrl.dram.perBankRdBursts::8           158                       # Per bank write bursts (Count)
system.mem_ctrl.dram.perBankRdBursts::9           216                       # Per bank write bursts (Count)
system.mem_ctrl.dram.perBankRdBursts::10          247                       # Per bank write bursts (Count)
system.mem_ctrl.dram.perBankRdBursts::11          284                       # Per bank write bursts (Count)
system.mem_ctrl.dram.perBankRdBursts::12          284                       # Per bank write bursts (Count)
system.mem_ctrl.dram.perBankRdBursts::13          290                       # Per bank write bursts (Count)
system.mem_ctrl.dram.perBankRdBursts::14          390                       # Per bank write bursts (Count)
system.mem_ctrl.dram.perBankRdBursts::15          411                       # Per bank write bursts (Count)
system.mem_ctrl.dram.perBankWrBursts::0             5                       # Per bank write bursts (Count)
system.mem_ctrl.dram.perBankWrBursts::1            11                       # Per bank write bursts (Count)
system.mem_ctrl.dram.perBankWrBursts::2             0                       # Per bank write bursts (Count)
system.mem_ctrl.dram.perBankWrBursts::3             0                       # Per bank write bursts (Count)
system.mem_ctrl.dram.perBankWrBursts::4             0                       # Per bank write bursts (Count)
system.mem_ctrl.dram.perBankWrBursts::5             0                       # Per bank write bursts (Count)
system.mem_ctrl.dram.perBankWrBursts::6             1                       # Per bank write bursts (Count)
system.mem_ctrl.dram.perBankWrBursts::7             0                       # Per bank write bursts (Count)
system.mem_ctrl.dram.perBankWrBursts::8             0                       # Per bank write bursts (Count)
system.mem_ctrl.dram.perBankWrBursts::9             2                       # Per bank write bursts (Count)
system.mem_ctrl.dram.perBankWrBursts::10            0                       # Per bank write bursts (Count)
system.mem_ctrl.dram.perBankWrBursts::11            0                       # Per bank write bursts (Count)
system.mem_ctrl.dram.perBankWrBursts::12            4                       # Per bank write bursts (Count)
system.mem_ctrl.dram.perBankWrBursts::13            4                       # Per bank write bursts (Count)
system.mem_ctrl.dram.perBankWrBursts::14           28                       # Per bank write bursts (Count)
system.mem_ctrl.dram.perBankWrBursts::15            9                       # Per bank write bursts (Count)
system.mem_ctrl.dram.totQLat                 35383250                       # Total ticks spent queuing (Tick)
system.mem_ctrl.dram.totBusLat               24840000                       # Total ticks spent in databus transfers (Tick)
system.mem_ctrl.dram.totMemAccLat           128533250                       # Total ticks spent from burst creation until serviced by the DRAM (Tick)
system.mem_ctrl.dram.avgQLat                  7122.23                       # Average queueing delay per DRAM burst ((Tick/Count))
system.mem_ctrl.dram.avgBusLat                5000.00                       # Average bus latency per DRAM burst ((Tick/Count))
system.mem_ctrl.dram.avgMemAccLat            25872.23                       # Average memory access latency per DRAM burst ((Tick/Count))
system.mem_ctrl.dram.readRowHits                 4154                       # Number of row buffer hits during reads (Count)
system.mem_ctrl.dram.writeRowHits                  46                       # Number of row buffer hits during writes (Count)
system.mem_ctrl.dram.readRowHitRate             83.62                       # Row buffer hit rate for reads (Ratio)
system.mem_ctrl.dram.writeRowHitRate            71.88                       # Row buffer hit rate for writes (Ratio)
system.mem_ctrl.dram.bytesPerActivate::samples          816                       # Bytes accessed per row activation (Byte)
system.mem_ctrl.dram.bytesPerActivate::mean   388.627451                       # Bytes accessed per row activation (Byte)
system.mem_ctrl.dram.bytesPerActivate::gmean   234.507691                       # Bytes accessed per row activation (Byte)
system.mem_ctrl.dram.bytesPerActivate::stdev   365.882516                       # Bytes accessed per row activation (Byte)
system.mem_ctrl.dram.bytesPerActivate::0-127          218     26.72%     26.72% # Bytes accessed per row activation (Byte)
system.mem_ctrl.dram.bytesPerActivate::128-255          217     26.59%     53.31% # Bytes accessed per row activation (Byte)
system.mem_ctrl.dram.bytesPerActivate::256-383           77      9.44%     62.75% # Bytes accessed per row activation (Byte)
system.mem_ctrl.dram.bytesPerActivate::384-511           49      6.00%     68.75% # Bytes accessed per row activation (Byte)
system.mem_ctrl.dram.bytesPerActivate::512-639           41      5.02%     73.77% # Bytes accessed per row activation (Byte)
system.mem_ctrl.dram.bytesPerActivate::640-767           24      2.94%     76.72% # Bytes accessed per row activation (Byte)
system.mem_ctrl.dram.bytesPerActivate::768-895           16      1.96%     78.68% # Bytes accessed per row activation (Byte)
system.mem_ctrl.dram.bytesPerActivate::896-1023           23      2.82%     81.50% # Bytes accessed per row activation (Byte)
system.mem_ctrl.dram.bytesPerActivate::1024-1151          151     18.50%    100.00% # Bytes accessed per row activation (Byte)
system.mem_ctrl.dram.bytesPerActivate::total          816                       # Bytes accessed per row activation (Byte)
system.mem_ctrl.dram.bytesRead                 317952                       # Total bytes read (Byte)
system.mem_ctrl.dram.bytesWritten                4096                       # Total bytes written (Byte)
system.mem_ctrl.dram.avgRdBW               416.767324                       # Average DRAM read bandwidth in MiBytes/s ((Byte/Second))
system.mem_ctrl.dram.avgWrBW                 5.368983                       # Average DRAM write bandwidth in MiBytes/s ((Byte/Second))
system.mem_ctrl.dram.peakBW                  12800.00                       # Theoretical peak bandwidth in MiByte/s ((Byte/Second))
system.mem_ctrl.dram.busUtil                     3.30                       # Data bus utilization in percentage (Ratio)
system.mem_ctrl.dram.busUtilRead                 3.26                       # Data bus utilization in percentage for reads (Ratio)
system.mem_ctrl.dram.busUtilWrite                0.04                       # Data bus utilization in percentage for writes (Ratio)
system.mem_ctrl.dram.pageHitRate                83.47                       # Row buffer hit rate, read and write combined (Ratio)
system.mem_ctrl.dram.power_state.pwrStateResidencyTicks::UNDEFINED    762900500                       # Cumulative time (in ticks) in various power states (Tick)
system.mem_ctrl.dram.rank0.actEnergy          3177300                       # Energy for activate commands per rank (pJ) (Joule)
system.mem_ctrl.dram.rank0.preEnergy          1658415                       # Energy for precharge commands per rank (pJ) (Joule)
system.mem_ctrl.dram.rank0.readEnergy        19192320                       # Energy for read commands per rank (pJ) (Joule)
system.mem_ctrl.dram.rank0.writeEnergy          88740                       # Energy for write commands per rank (pJ) (Joule)
system.mem_ctrl.dram.rank0.refreshEnergy 59620080.000000                       # Energy for refresh commands per rank (pJ) (Joule)
system.mem_ctrl.dram.rank0.actBackEnergy    203619960                       # Energy for active background per rank (pJ) (Joule)
system.mem_ctrl.dram.rank0.preBackEnergy    121484640                       # Energy for precharge background per rank (pJ) (Joule)
system.mem_ctrl.dram.rank0.actPowerDownEnergy            0                       # Energy for active power-down per rank (pJ) (Joule)
system.mem_ctrl.dram.rank0.prePowerDownEnergy            0                       # Energy for precharge power-down per rank (pJ) (Joule)
system.mem_ctrl.dram.rank0.selfRefreshEnergy            0                       # Energy for self refresh per rank (pJ) (Joule)
system.mem_ctrl.dram.rank0.totalEnergy      408841455                       # Total energy per rank (pJ) (Joule)
system.mem_ctrl.dram.rank0.averagePower    535.904033                       # Core power per rank (mW) (Watt)
system.mem_ctrl.dram.rank0.totalIdleTime            0                       # Total Idle time Per DRAM Rank (Tick)
system.mem_ctrl.dram.rank0.pwrStateTime::IDLE    313785250                       # Time in different power states (Tick)
system.mem_ctrl.dram.rank0.pwrStateTime::REF     25220000                       # Time in different power states (Tick)
system.mem_ctrl.dram.rank0.pwrStateTime::SREF            0                       # Time in different power states (Tick)
system.mem_ctrl.dram.rank0.pwrStateTime::PRE_PDN            0                       # Time in different power states (Tick)
system.mem_ctrl.dram.rank0.pwrStateTime::ACT    423895250                       # Time in different power states (Tick)
system.mem_ctrl.dram.rank0.pwrStateTime::ACT_PDN            0                       # Time in different power states (Tick)
system.mem_ctrl.dram.rank1.actEnergy          2763180                       # Energy for activate commands per rank (pJ) (Joule)
system.mem_ctrl.dram.rank1.preEnergy          1438305                       # Energy for precharge commands per rank (pJ) (Joule)
system.mem_ctrl.dram.rank1.readEnergy        16279200                       # Energy for read commands per rank (pJ) (Joule)
system.mem_ctrl.dram.rank1.writeEnergy         245340                       # Energy for write commands per rank (pJ) (Joule)
system.mem_ctrl.dram.rank1.refreshEnergy 59620080.000000                       # Energy for refresh commands per rank (pJ) (Joule)
system.mem_ctrl.dram.rank1.actBackEnergy    167100060                       # Energy for active background per rank (pJ) (Joule)
system.mem_ctrl.dram.rank1.preBackEnergy    152238240                       # Energy for precharge background per rank (pJ) (Joule)
system.mem_ctrl.dram.rank1.actPowerDownEnergy            0                       # Energy for active power-down per rank (pJ) (Joule)
system.mem_ctrl.dram.rank1.prePowerDownEnergy            0                       # Energy for precharge power-down per rank (pJ) (Joule)
system.mem_ctrl.dram.rank1.selfRefreshEnergy            0                       # Energy for self refresh per rank (pJ) (Joule)
system.mem_ctrl.dram.rank1.totalEnergy      399684405                       # Total energy per rank (pJ) (Joule)
system.mem_ctrl.dram.rank1.averagePower    523.901092                       # Core power per rank (mW) (Watt)
system.mem_ctrl.dram.rank1.totalIdleTime            0                       # Total Idle time Per DRAM Rank (Tick)
system.mem_ctrl.dram.rank1.pwrStateTime::IDLE    394103000                       # Time in different power states (Tick)
system.mem_ctrl.dram.rank1.pwrStateTime::REF     25220000                       # Time in different power states (Tick)
system.mem_ctrl.dram.rank1.pwrStateTime::SREF            0                       # Time in different power states (Tick)
system.mem_ctrl.dram.rank1.pwrStateTime::PRE_PDN            0                       # Time in different power states (Tick)
system.mem_ctrl.dram.rank1.pwrStateTime::ACT    343577500                       # Time in different power states (Tick)
system.mem_ctrl.dram.rank1.pwrStateTime::ACT_PDN            0                       # Time in different power states (Tick)
system.mem_ctrl.power_state.pwrStateResidencyTicks::UNDEFINED    762900500                       # Cumulative time (in ticks) in various power states (Tick)
system.membus.transDist::ReadResp                3037                       # Transaction distribution (Count)
system.membus.transDist::WritebackDirty            90                       # Transaction distribution (Count)
system.membus.transDist::CleanEvict               911                       # Transaction distribution (Count)
system.membus.transDist::UpgradeReq                 1                       # Transaction distribution (Count)
system.membus.transDist::ReadExReq               1934                       # Transaction distribution (Count)
system.membus.transDist::ReadExResp              1934                       # Transaction distribution (Count)
system.membus.transDist::ReadSharedReq           3037                       # Transaction distribution (Count)
system.membus.pktCount_system.cpu.l2cache.mem_side_port::system.mem_ctrl.port        10944                       # Packet count per connected requestor and responder (Count)
system.membus.pktCount_system.cpu.l2cache.mem_side_port::total        10944                       # Packet count per connected requestor and responder (Count)
system.membus.pktCount::total                   10944                       # Packet count per connected requestor and responder (Count)
system.membus.pktSize_system.cpu.l2cache.mem_side_port::system.mem_ctrl.port       323904                       # Cumulative packet size per connected requestor and responder (Byte)
system.membus.pktSize_system.cpu.l2cache.mem_side_port::total       323904                       # Cumulative packet size per connected requestor and responder (Byte)
system.membus.pktSize::total                   323904                       # Cumulative packet size per connected requestor and responder (Byte)
system.membus.snoops                                1                       # Total snoops (Count)
system.membus.snoopTraffic                          0                       # Total snoop traffic (Byte)
system.membus.snoopFanout::samples               4972                       # Request fanout histogram (Count)
system.membus.snoopFanout::mean                     0                       # Request fanout histogram (Count)
system.membus.snoopFanout::stdev                    0                       # Request fanout histogram (Count)
system.membus.snoopFanout::underflows               0      0.00%      0.00% # Request fanout histogram (Count)
system.membus.snoopFanout::0                     4972    100.00%    100.00% # Request fanout histogram (Count)
system.membus.snoopFanout::1                        0      0.00%    100.00% # Request fanout histogram (Count)
system.membus.snoopFanout::overflows                0      0.00%    100.00% # Request fanout histogram (Count)
system.membus.snoopFanout::min_value                0                       # Request fanout histogram (Count)
system.membus.snoopFanout::max_value                0                       # Request fanout histogram (Count)
system.membus.snoopFanout::total                 4972                       # Request fanout histogram (Count)
system.membus.power_state.pwrStateResidencyTicks::UNDEFINED    762900500                       # Cumulative time (in ticks) in various power states (Tick)
system.membus.reqLayer2.occupancy             3166000                       # Layer occupancy (ticks) (Tick)
system.membus.reqLayer2.utilization               0.0                       # Layer utilization (Ratio)
system.membus.respLayer0.occupancy           13524250                       # Layer occupancy (ticks) (Tick)
system.membus.respLayer0.utilization              0.0                       # Layer utilization (Ratio)
system.membus.snoop_filter.totRequests           5973                       # Total number of requests made to the snoop filter. (Count)
system.membus.snoop_filter.hitSingleRequests         1002                       # Number of requests hitting in the snoop filter with a single holder of the requested data. (Count)
system.membus.snoop_filter.hitMultiRequests            0                       # Number of requests hitting in the snoop filter with multiple (>1) holders of the requested data. (Count)
system.membus.snoop_filter.totSnoops                0                       # Total number of snoops made to the snoop filter. (Count)
system.membus.snoop_filter.hitSingleSnoops            0                       # Number of snoops hitting in the snoop filter with a single holder of the requested data. (Count)
system.membus.snoop_filter.hitMultiSnoops            0                       # Number of snoops hitting in the snoop filter with multiple (>1) holders of the requested data. (Count)
system.workload.inst.arm                            0                       # number of arm instructions executed (Count)
system.workload.inst.quiesce                        0                       # number of quiesce instructions executed (Count)

---------- End Simulation Statistics   ----------
