
---------- Begin Simulation Statistics ----------
simSeconds                                   0.000765                       # Number of seconds simulated (Second)
simTicks                                    765258500                       # Number of ticks simulated (Tick)
finalTick                                   765258500                       # Number of ticks from beginning of simulation (restored from checkpoints and never reset) (Tick)
simFreq                                  1000000000000                       # The number of ticks per simulated second ((Tick/Second))
hostSeconds                                      8.79                       # Real time elapsed on the host (Second)
hostTickRate                                 87015109                       # The number of ticks simulated per host second (ticks/s) ((Tick/Second))
hostMemory                                    1230396                       # Number of bytes of host memory used (Byte)
simInsts                                      1534470                       # Number of instructions simulated (Count)
simOps                                        2676519                       # Number of ops (including micro ops) simulated (Count)
hostInstRate                                   174478                       # Simulator instruction rate (inst/s) ((Count/Second))
hostOpRate                                     304334                       # Simulator op (including micro ops) rate (op/s) ((Count/Second))
system.clk_domain.clock                           500                       # Clock period in ticks (Tick)
system.clk_domain.voltage_domain.voltage            1                       # Voltage in Volts (Volt)
system.cpu.numCycles                          1530518                       # Number of cpu cycles simulated (Cycle)
system.cpu.numWorkItemsStarted                      0                       # Number of work items this cpu started (Count)
system.cpu.numWorkItemsCompleted                    0                       # Number of work items this cpu completed (Count)
system.cpu.instsAdded                         2990990                       # Number of instructions added to the IQ (excludes non-spec) (Count)
system.cpu.nonSpecInstsAdded                     7559                       # Number of non-speculative instructions added to the IQ (Count)
system.cpu.instsIssued                        2892459                       # Number of instructions issued (Count)
system.cpu.squashedInstsIssued                    701                       # Number of squashed instructions issued (Count)
system.cpu.squashedInstsExamined               322024                       # Number of squashed instructions iterated over during squash; mainly for profiling (Count)
system.cpu.squashedOperandsExamined            626612                       # Number of squashed operands that are examined and possibly removed from graph (Count)
system.cpu.squashedNonSpecRemoved                  65                       # Number of squashed non-spec instructions that were removed (Count)
system.cpu.numIssuedDist::samples             1417026                       # Number of insts issued each cycle (Count)
system.cpu.numIssuedDist::mean               2.041218                       # Number of insts issued each cycle (Count)
system.cpu.numIssuedDist::stdev              2.241715                       # Number of insts issued each cycle (Count)
system.cpu.numIssuedDist::underflows                0      0.00%      0.00% # Number of insts issued each cycle (Count)
system.cpu.numIssuedDist::0                    554861     39.16%     39.16% # Number of insts issued each cycle (Count)
system.cpu.numIssuedDist::1                    189690     13.39%     52.54% # Number of insts issued each cycle (Count)
system.cpu.numIssuedDist::2                    149943     10.58%     63.12% # Number of insts issued each cycle (Count)
system.cpu.numIssuedDist::3                    174806     12.34%     75.46% # Number of insts issued each cycle (Count)
system.cpu.numIssuedDist::4                     99278      7.01%     82.47% # Number of insts issued each cycle (Count)
system.cpu.numIssuedDist::5                    104100      7.35%     89.81% # Number of insts issued each cycle (Count)
system.cpu.numIssuedDist::6                     71063      5.01%     94.83% # Number of insts issued each cycle (Count)
system.cpu.numIssuedDist::7                     51805      3.66%     98.48% # Number of insts issued each cycle (Count)
system.cpu.numIssuedDist::8                     21480      1.52%    100.00% # Number of insts issued each cycle (Count)
system.cpu.numIssuedDist::overflows                 0      0.00%    100.00% # Number of insts issued each cycle (Count)
system.cpu.numIssuedDist::min_value                 0                       # Number of insts issued each cycle (Count)
system.cpu.numIssuedDist::max_value                 8                       # Number of insts issued each cycle (Count)
system.cpu.numIssuedDist::total               1417026                       # Number of insts issued each cycle (Count)
system.cpu.statFuBusy::No_OpClass                   0      0.00%      0.00% # attempts to use FU when none available (Count)
system.cpu.statFuBusy::IntAlu                   36159     63.93%     63.93% # attempts to use FU when none available (Count)
system.cpu.statFuBusy::IntMult                      0      0.00%     63.93% # attempts to use FU when none available (Count)
system.cpu.statFuBusy::IntDiv                       0      0.00%     63.93% # attempts to use FU when none available (Count)
system.cpu.statFuBusy::FloatAdd                     0      0.00%     63.93% # attempts to use FU when none available (Count)
system.cpu.statFuBusy::FloatCmp                     0      0.00%     63.93% # attempts to use FU when none available (Count)
system.cpu.statFuBusy::FloatCvt                     0      0.00%     63.93% # attempts to use FU when none available (Count)
system.cpu.statFuBusy::FloatMult                    0      0.00%     63.93% # attempts to use FU when none available (Count)
system.cpu.statFuBusy::FloatMultAcc                 0      0.00%     63.93% # attempts to use FU when none available (Count)
system.cpu.statFuBusy::FloatDiv                     0      0.00%     63.93% # attempts to use FU when none available (Count)
system.cpu.statFuBusy::FloatMisc                    0      0.00%     63.93% # attempts to use FU when none available (Count)
system.cpu.statFuBusy::FloatSqrt                    0      0.00%     63.93% # attempts to use FU when none available (Count)
system.cpu.statFuBusy::SimdAdd                      0      0.00%     63.93% # attempts to use FU when none available (Count)
system.cpu.statFuBusy::SimdAddAcc                   0      0.00%     63.93% # attempts to use FU when none available (Count)
system.cpu.statFuBusy::SimdAlu                     24      0.04%     63.97% # attempts to use FU when none available (Count)
system.cpu.statFuBusy::SimdCmp                      0      0.00%     63.97% # attempts to use FU when none available (Count)
system.cpu.statFuBusy::SimdCvt                     56      0.10%     64.07% # attempts to use FU when none available (Count)
system.cpu.statFuBusy::SimdMisc                     4      0.01%     64.07% # attempts to use FU when none available (Count)
system.cpu.statFuBusy::SimdMult                     0      0.00%     64.07% # attempts to use FU when none available (Count)
system.cpu.statFuBusy::SimdMultAcc                  0      0.00%     64.07% # attempts to use FU when none available (Count)
system.cpu.statFuBusy::SimdShift                    5      0.01%     64.08% # attempts to use FU when none available (Count)
system.cpu.statFuBusy::SimdShiftAcc                 0      0.00%     64.08% # attempts to use FU when none available (Count)
system.cpu.statFuBusy::SimdDiv                      0      0.00%     64.08% # attempts to use FU when none available (Count)
system.cpu.statFuBusy::SimdSqrt                     0      0.00%     64.08% # attempts to use FU when none available (Count)
system.cpu.statFuBusy::SimdFloatAdd                 0      0.00%     64.08% # attempts to use FU when none available (Count)
system.cpu.statFuBusy::SimdFloatAlu                 0      0.00%     64.08% # attempts to use FU when none available (Count)
system.cpu.statFuBusy::SimdFloatCmp                 0      0.00%     64.08% # attempts to use FU when none available (Count)
system.cpu.statFuBusy::SimdFloatCvt                 0      0.00%     64.08% # attempts to use FU when none available (Count)
system.cpu.statFuBusy::SimdFloatDiv                 0      0.00%     64.08% # attempts to use FU when none available (Count)
system.cpu.statFuBusy::SimdFloatMisc                0      0.00%     64.08% # attempts to use FU when none available (Count)
system.cpu.statFuBusy::SimdFloatMult                0      0.00%     64.08% # attempts to use FU when none available (Count)
system.cpu.statFuBusy::SimdFloatMultAcc             0      0.00%     64.08% # attempts to use FU when none available (Count)
system.cpu.statFuBusy::SimdFloatSqrt                0      0.00%     64.08% # attempts to use FU when none available (Count)
system.cpu.statFuBusy::SimdReduceAdd                0      0.00%     64.08% # attempts to use FU when none available (Count)
system.cpu.statFuBusy::SimdReduceAlu                0      0.00%     64.08% # attempts to use FU when none available (Count)
system.cpu.statFuBusy::SimdReduceCmp                0      0.00%     64.08% # attempts to use FU when none available (Count)
system.cpu.statFuBusy::SimdFloatReduceAdd            0      0.00%     64.08% # attempts to use FU when none available (Count)
system.cpu.statFuBusy::SimdFloatReduceCmp            0      0.00%     64.08% # attempts to use FU when none available (Count)
system.cpu.statFuBusy::SimdAes                      0      0.00%     64.08% # attempts to use FU when none available (Count)
system.cpu.statFuBusy::SimdAesMix                   0      0.00%     64.08% # attempts to use FU when none available (Count)
system.cpu.statFuBusy::SimdSha1Hash                 0      0.00%     64.08% # attempts to use FU when none available (Count)
system.cpu.statFuBusy::SimdSha1Hash2                0      0.00%     64.08% # attempts to use FU when none available (Count)
system.cpu.statFuBusy::SimdSha256Hash               0      0.00%     64.08% # attempts to use FU when none available (Count)
system.cpu.statFuBusy::SimdSha256Hash2              0      0.00%     64.08% # attempts to use FU when none available (Count)
system.cpu.statFuBusy::SimdShaSigma2                0      0.00%     64.08% # attempts to use FU when none available (Count)
system.cpu.statFuBusy::SimdShaSigma3                0      0.00%     64.08% # attempts to use FU when none available (Count)
system.cpu.statFuBusy::SimdPredAlu                  0      0.00%     64.08% # attempts to use FU when none available (Count)
system.cpu.statFuBusy::MemRead                  17044     30.13%     94.22% # attempts to use FU when none available (Count)
system.cpu.statFuBusy::MemWrite                  3160      5.59%     99.80% # attempts to use FU when none available (Count)
system.cpu.statFuBusy::FloatMemRead                62      0.11%     99.91% # attempts to use FU when none available (Count)
system.cpu.statFuBusy::FloatMemWrite               50      0.09%    100.00% # attempts to use FU when none available (Count)
system.cpu.statFuBusy::IprAccess                    0      0.00%    100.00% # attempts to use FU when none available (Count)
system.cpu.statFuBusy::InstPrefetch                 0      0.00%    100.00% # attempts to use FU when none available (Count)
system.cpu.statIssuedInstType_0::No_OpClass        32122      1.11%      1.11% # Number of instructions issued per FU type, per thread (Count)
system.cpu.statIssuedInstType_0::IntAlu       1994044     68.94%     70.05% # Number of instructions issued per FU type, per thread (Count)
system.cpu.statIssuedInstType_0::IntMult        38820      1.34%     71.39% # Number of instructions issued per FU type, per thread (Count)
system.cpu.statIssuedInstType_0::IntDiv          1853      0.06%     71.46% # Number of instructions issued per FU type, per thread (Count)
system.cpu.statIssuedInstType_0::FloatAdd         3487      0.12%     71.58% # Number of instructions issued per FU type, per thread (Count)
system.cpu.statIssuedInstType_0::FloatCmp            0      0.00%     71.58% # Number of instructions issued per FU type, per thread (Count)
system.cpu.statIssuedInstType_0::FloatCvt           32      0.00%     71.58% # Number of instructions issued per FU type, per thread (Count)
system.cpu.statIssuedInstType_0::FloatMult            0      0.00%     71.58% # Number of instructions issued per FU type, per thread (Count)
system.cpu.statIssuedInstType_0::FloatMultAcc            0      0.00%     71.58% # Number of instructions issued per FU type, per thread (Count)
system.cpu.statIssuedInstType_0::FloatDiv            0      0.00%     71.58% # Number of instructions issued per FU type, per thread (Count)
system.cpu.statIssuedInstType_0::FloatMisc            0      0.00%     71.58% # Number of instructions issued per FU type, per thread (Count)
system.cpu.statIssuedInstType_0::FloatSqrt            0      0.00%     71.58% # Number of instructions issued per FU type, per thread (Count)
system.cpu.statIssuedInstType_0::SimdAdd          869      0.03%     71.61% # Number of instructions issued per FU type, per thread (Count)
system.cpu.statIssuedInstType_0::SimdAddAcc            0      0.00%     71.61% # Number of instructions issued per FU type, per thread (Count)
system.cpu.statIssuedInstType_0::SimdAlu        12879      0.45%     72.05% # Number of instructions issued per FU type, per thread (Count)
system.cpu.statIssuedInstType_0::SimdCmp            0      0.00%     72.05% # Number of instructions issued per FU type, per thread (Count)
system.cpu.statIssuedInstType_0::SimdCvt        12203      0.42%     72.47% # Number of instructions issued per FU type, per thread (Count)
system.cpu.statIssuedInstType_0::SimdMisc        24396      0.84%     73.32% # Number of instructions issued per FU type, per thread (Count)
system.cpu.statIssuedInstType_0::SimdMult            0      0.00%     73.32% # Number of instructions issued per FU type, per thread (Count)
system.cpu.statIssuedInstType_0::SimdMultAcc            0      0.00%     73.32% # Number of instructions issued per FU type, per thread (Count)
system.cpu.statIssuedInstType_0::SimdShift          718      0.02%     73.34% # Number of instructions issued per FU type, per thread (Count)
system.cpu.statIssuedInstType_0::SimdShiftAcc            0      0.00%     73.34% # Number of instructions issued per FU type, per thread (Count)
system.cpu.statIssuedInstType_0::SimdDiv            0      0.00%     73.34% # Number of instructions issued per FU type, per thread (Count)
system.cpu.statIssuedInstType_0::SimdSqrt            0      0.00%     73.34% # Number of instructions issued per FU type, per thread (Count)
system.cpu.statIssuedInstType_0::SimdFloatAdd            0      0.00%     73.34% # Number of instructions issued per FU type, per thread (Count)
system.cpu.statIssuedInstType_0::SimdFloatAlu            0      0.00%     73.34% # Number of instructions issued per FU type, per thread (Count)
system.cpu.statIssuedInstType_0::SimdFloatCmp            0      0.00%     73.34% # Number of instructions issued per FU type, per thread (Count)
system.cpu.statIssuedInstType_0::SimdFloatCvt          441      0.02%     73.36% # Number of instructions issued per FU type, per thread (Count)
system.cpu.statIssuedInstType_0::SimdFloatDiv            1      0.00%     73.36% # Number of instructions issued per FU type, per thread (Count)
system.cpu.statIssuedInstType_0::SimdFloatMisc            0      0.00%     73.36% # Number of instructions issued per FU type, per thread (Count)
system.cpu.statIssuedInstType_0::SimdFloatMult            0      0.00%     73.36% # Number of instructions issued per FU type, per thread (Count)
system.cpu.statIssuedInstType_0::SimdFloatMultAcc            0      0.00%     73.36% # Number of instructions issued per FU type, per thread (Count)
system.cpu.statIssuedInstType_0::SimdFloatSqrt          111      0.00%     73.36% # Number of instructions issued per FU type, per thread (Count)
system.cpu.statIssuedInstType_0::SimdReduceAdd            0      0.00%     73.36% # Number of instructions issued per FU type, per thread (Count)
system.cpu.statIssuedInstType_0::SimdReduceAlu            0      0.00%     73.36% # Number of instructions issued per FU type, per thread (Count)
system.cpu.statIssuedInstType_0::SimdReduceCmp            0      0.00%     73.36% # Number of instructions issued per FU type, per thread (Count)
system.cpu.statIssuedInstType_0::SimdFloatReduceAdd            0      0.00%     73.36% # Number of instructions issued per FU type, per thread (Count)
system.cpu.statIssuedInstType_0::SimdFloatReduceCmp            0      0.00%     73.36% # Number of instructions issued per FU type, per thread (Count)
system.cpu.statIssuedInstType_0::SimdAes            0      0.00%     73.36% # Number of instructions issued per FU type, per thread (Count)
system.cpu.statIssuedInstType_0::SimdAesMix            0      0.00%     73.36% # Number of instructions issued per FU type, per thread (Count)
system.cpu.statIssuedInstType_0::SimdSha1Hash            0      0.00%     73.36% # Number of instructions issued per FU type, per thread (Count)
system.cpu.statIssuedInstType_0::SimdSha1Hash2            0      0.00%     73.36% # Number of instructions issued per FU type, per thread (Count)
system.cpu.statIssuedInstType_0::SimdSha256Hash            0      0.00%     73.36% # Number of instructions issued per FU type, per thread (Count)
system.cpu.statIssuedInstType_0::SimdSha256Hash2            0      0.00%     73.36% # Number of instructions issued per FU type, per thread (Count)
system.cpu.statIssuedInstType_0::SimdShaSigma2            0      0.00%     73.36% # Number of instructions issued per FU type, per thread (Count)
system.cpu.statIssuedInstType_0::SimdShaSigma3            0      0.00%     73.36% # Number of instructions issued per FU type, per thread (Count)
system.cpu.statIssuedInstType_0::SimdPredAlu            0      0.00%     73.36% # Number of instructions issued per FU type, per thread (Count)
system.cpu.statIssuedInstType_0::MemRead       511943     17.70%     91.06% # Number of instructions issued per FU type, per thread (Count)
system.cpu.statIssuedInstType_0::MemWrite       239165      8.27%     99.33% # Number of instructions issued per FU type, per thread (Count)
system.cpu.statIssuedInstType_0::FloatMemRead        12767      0.44%     99.77% # Number of instructions issued per FU type, per thread (Count)
system.cpu.statIssuedInstType_0::FloatMemWrite         6608      0.23%    100.00% # Number of instructions issued per FU type, per thread (Count)
system.cpu.statIssuedInstType_0::IprAccess            0      0.00%    100.00% # Number of instructions issued per FU type, per thread (Count)
system.cpu.statIssuedInstType_0::InstPrefetch            0      0.00%    100.00% # Number of instructions issued per FU type, per thread (Count)
system.cpu.statIssuedInstType_0::total        2892459                       # Number of instructions issued per FU type, per thread (Count)
system.cpu.issueRate                         1.889856                       # Inst issue rate ((Count/Cycle))
system.cpu.fuBusy                               56564                       # FU busy when requested (Count)
system.cpu.fuBusyRate                        0.019556                       # FU busy rate (busy events/executed inst) ((Count/Count))
system.cpu.intInstQueueReads                  7094110                       # Number of integer instruction queue reads (Count)
system.cpu.intInstQueueWrites                 3228889                       # Number of integer instruction queue writes (Count)
system.cpu.intInstQueueWakeupAccesses         2787653                       # Number of integer instruction queue wakeup accesses (Count)
system.cpu.fpInstQueueReads                    165099                       # Number of floating instruction queue reads (Count)
system.cpu.fpInstQueueWrites                    96719                       # Number of floating instruction queue writes (Count)
system.cpu.fpInstQueueWakeupAccesses            79860                       # Number of floating instruction queue wakeup accesses (Count)
system.cpu.vecInstQueueReads                        0                       # Number of vector instruction queue reads (Count)
system.cpu.vecInstQueueWrites                       0                       # Number of vector instruction queue writes (Count)
system.cpu.vecInstQueueWakeupAccesses               0                       # Number of vector instruction queue wakeup accesses (Count)
system.cpu.intAluAccesses                     2834286                       # Number of integer alu accesses (Count)
system.cpu.fpAluAccesses                        82615                       # Number of floating point alu accesses (Count)
system.cpu.vecAluAccesses                           0                       # Number of vector alu accesses (Count)
system.cpu.numInsts                           2879704                       # Number of executed instructions (Count)
system.cpu.numLoadInsts                        518846                       # Number of load instructions executed (Count)
system.cpu.numSquashedInsts                     12755                       # Number of squashed instructions skipped in execute (Count)
system.cpu.numSwp                                   0                       # Number of swp insts executed (Count)
system.cpu.numNop                                   0                       # Number of nop insts executed (Count)
system.cpu.numRefs                             762726                       # Number of memory reference insts executed (Count)
system.cpu.numBranches                         237948                       # Number of branches executed (Count)
system.cpu.numStoreInsts                       243880                       # Number of stores executed (Count)
system.cpu.numRate                           1.881522                       # Inst execution rate ((Count/Cycle))
system.cpu.timesIdled                            1194                       # Number of times that the entire CPU went into an idle state and unscheduled itself (Count)
system.cpu.idleCycles                          113492                       # Total number of cycles that the CPU has spent unscheduled due to idling (Cycle)
system.cpu.committedInsts                     1534470                       # Number of Instructions Simulated (Count)
system.cpu.committedOps                       2676519                       # Number of Ops (including micro ops) Simulated (Count)
system.cpu.cpi                               0.997425                       # CPI: Cycles Per Instruction ((Cycle/Count))
system.cpu.totalCpi                          0.997425                       # CPI: Total CPI of All Threads ((Cycle/Count))
system.cpu.ipc                               1.002582                       # IPC: Instructions Per Cycle ((Count/Cycle))
system.cpu.totalIpc                          1.002582                       # IPC: Total IPC of All Threads ((Count/Cycle))
system.cpu.intRegfileReads                    3719358                       # Number of integer regfile reads (Count)
system.cpu.intRegfileWrites                   2122807                       # Number of integer regfile writes (Count)
system.cpu.fpRegfileReads                      134030                       # Number of floating regfile reads (Count)
system.cpu.fpRegfileWrites                      67153                       # Number of floating regfile writes (Count)
system.cpu.ccRegfileReads                     1287566                       # number of cc regfile reads (Count)
system.cpu.ccRegfileWrites                     878280                       # number of cc regfile writes (Count)
system.cpu.miscRegfileReads                   1260291                       # number of misc regfile reads (Count)
system.cpu.miscRegfileWrites                       18                       # number of misc regfile writes (Count)
system.cpu.MemDepUnit__0.insertedLoads         539215                       # Number of loads inserted to the mem dependence unit. (Count)
system.cpu.MemDepUnit__0.insertedStores        250960                       # Number of stores inserted to the mem dependence unit. (Count)
system.cpu.MemDepUnit__0.conflictingLoads       213903                       # Number of conflicting loads. (Count)
system.cpu.MemDepUnit__0.conflictingStores        58281                       # Number of conflicting stores. (Count)
system.cpu.MemDepUnit__1.insertedLoads              0                       # Number of loads inserted to the mem dependence unit. (Count)
system.cpu.MemDepUnit__1.insertedStores             0                       # Number of stores inserted to the mem dependence unit. (Count)
system.cpu.MemDepUnit__1.conflictingLoads            0                       # Number of conflicting loads. (Count)
system.cpu.MemDepUnit__1.conflictingStores            0                       # Number of conflicting stores. (Count)
system.cpu.MemDepUnit__2.insertedLoads              0                       # Number of loads inserted to the mem dependence unit. (Count)
system.cpu.MemDepUnit__2.insertedStores             0                       # Number of stores inserted to the mem dependence unit. (Count)
system.cpu.MemDepUnit__2.conflictingLoads            0                       # Number of conflicting loads. (Count)
system.cpu.MemDepUnit__2.conflictingStores            0                       # Number of conflicting stores. (Count)
system.cpu.MemDepUnit__3.insertedLoads              0                       # Number of loads inserted to the mem dependence unit. (Count)
system.cpu.MemDepUnit__3.insertedStores             0                       # Number of stores inserted to the mem dependence unit. (Count)
system.cpu.MemDepUnit__3.conflictingLoads            0                       # Number of conflicting loads. (Count)
system.cpu.MemDepUnit__3.conflictingStores            0                       # Number of conflicting stores. (Count)
system.cpu.branchPred.lookups                  277532                       # Number of BP lookups (Count)
system.cpu.branchPred.condPredicted            215479                       # Number of conditional branches predicted (Count)
system.cpu.branchPred.condIncorrect              5055                       # Number of conditional branches incorrect (Count)
system.cpu.branchPred.BTBLookups               135984                       # Number of BTB lookups (Count)
system.cpu.branchPred.BTBUpdates                 2875                       # Number of BTB updates (Count)
system.cpu.branchPred.BTBHits                  133569                       # Number of BTB hits (Count)
system.cpu.branchPred.BTBHitRatio            0.982241                       # BTB Hit Ratio (Ratio)
system.cpu.branchPred.RASUsed                   18201                       # Number of times the RAS was used to get a target. (Count)
system.cpu.branchPred.RASIncorrect                  3                       # Number of incorrect RAS predictions. (Count)
system.cpu.branchPred.indirectLookups           15537                       # Number of indirect predictor lookups. (Count)
system.cpu.branchPred.indirectHits              14102                       # Number of indirect target hits. (Count)
system.cpu.branchPred.indirectMisses             1435                       # Number of indirect misses. (Count)
system.cpu.branchPred.indirectMispredicted          445                       # Number of mispredicted indirect branches. (Count)
system.cpu.commit.commitSquashedInsts          319926                       # The number of squashed insts skipped by commit (Count)
system.cpu.commit.commitNonSpecStalls            7494                       # The number of times commit has been forced to stall to communicate backwards (Count)
system.cpu.commit.branchMispredicts              4667                       # The number of times a branch was mispredicted (Count)
system.cpu.commit.numCommittedDist::samples      1370464                       # Number of insts commited each cycle (Count)
system.cpu.commit.numCommittedDist::mean     1.953002                       # Number of insts commited each cycle (Count)
system.cpu.commit.numCommittedDist::stdev     2.765788                       # Number of insts commited each cycle (Count)
system.cpu.commit.numCommittedDist::underflows            0      0.00%      0.00% # Number of insts commited each cycle (Count)
system.cpu.commit.numCommittedDist::0          663692     48.43%     48.43% # Number of insts commited each cycle (Count)
system.cpu.commit.numCommittedDist::1          222411     16.23%     64.66% # Number of insts commited each cycle (Count)
system.cpu.commit.numCommittedDist::2          110831      8.09%     72.74% # Number of insts commited each cycle (Count)
system.cpu.commit.numCommittedDist::3           94565      6.90%     79.64% # Number of insts commited each cycle (Count)
system.cpu.commit.numCommittedDist::4           23768      1.73%     81.38% # Number of insts commited each cycle (Count)
system.cpu.commit.numCommittedDist::5           46399      3.39%     84.76% # Number of insts commited each cycle (Count)
system.cpu.commit.numCommittedDist::6           10532      0.77%     85.53% # Number of insts commited each cycle (Count)
system.cpu.commit.numCommittedDist::7           27636      2.02%     87.55% # Number of insts commited each cycle (Count)
system.cpu.commit.numCommittedDist::8          170630     12.45%    100.00% # Number of insts commited each cycle (Count)
system.cpu.commit.numCommittedDist::overflows            0      0.00%    100.00% # Number of insts commited each cycle (Count)
system.cpu.commit.numCommittedDist::min_value            0                       # Number of insts commited each cycle (Count)
system.cpu.commit.numCommittedDist::max_value            8                       # Number of insts commited each cycle (Count)
system.cpu.commit.numCommittedDist::total      1370464                       # Number of insts commited each cycle (Count)
system.cpu.commit.instsCommitted              1534470                       # Number of instructions committed (Count)
system.cpu.commit.opsCommitted                2676519                       # Number of ops (including micro ops) committed (Count)
system.cpu.commit.memRefs                      705988                       # Number of memory references committed (Count)
system.cpu.commit.loads                        470413                       # Number of loads committed (Count)
system.cpu.commit.amos                              0                       # Number of atomic instructions committed (Count)
system.cpu.commit.membars                        4984                       # Number of memory barriers committed (Count)
system.cpu.commit.branches                     228152                       # Number of branches committed (Count)
system.cpu.commit.vectorInstructions                0                       # Number of committed Vector instructions. (Count)
system.cpu.commit.floating                      74465                       # Number of committed floating point instructions. (Count)
system.cpu.commit.integer                     2588828                       # Number of committed integer instructions. (Count)
system.cpu.commit.functionCalls                 15967                       # Number of function calls committed. (Count)
system.cpu.commit.committedInstType_0::No_OpClass        28985      1.08%      1.08% # Class of committed instruction (Count)
system.cpu.commit.committedInstType_0::IntAlu      1849962     69.12%     70.20% # Class of committed instruction (Count)
system.cpu.commit.committedInstType_0::IntMult        38739      1.45%     71.65% # Class of committed instruction (Count)
system.cpu.commit.committedInstType_0::IntDiv         1653      0.06%     71.71% # Class of committed instruction (Count)
system.cpu.commit.committedInstType_0::FloatAdd         3158      0.12%     71.83% # Class of committed instruction (Count)
system.cpu.commit.committedInstType_0::FloatCmp            0      0.00%     71.83% # Class of committed instruction (Count)
system.cpu.commit.committedInstType_0::FloatCvt           32      0.00%     71.83% # Class of committed instruction (Count)
system.cpu.commit.committedInstType_0::FloatMult            0      0.00%     71.83% # Class of committed instruction (Count)
system.cpu.commit.committedInstType_0::FloatMultAcc            0      0.00%     71.83% # Class of committed instruction (Count)
system.cpu.commit.committedInstType_0::FloatDiv            0      0.00%     71.83% # Class of committed instruction (Count)
system.cpu.commit.committedInstType_0::FloatMisc            0      0.00%     71.83% # Class of committed instruction (Count)
system.cpu.commit.committedInstType_0::FloatSqrt            0      0.00%     71.83% # Class of committed instruction (Count)
system.cpu.commit.committedInstType_0::SimdAdd          526      0.02%     71.85% # Class of committed instruction (Count)
system.cpu.commit.committedInstType_0::SimdAddAcc            0      0.00%     71.85% # Class of committed instruction (Count)
system.cpu.commit.committedInstType_0::SimdAlu        11633      0.43%     72.28% # Class of committed instruction (Count)
system.cpu.commit.committedInstType_0::SimdCmp            0      0.00%     72.28% # Class of committed instruction (Count)
system.cpu.commit.committedInstType_0::SimdCvt        11122      0.42%     72.70% # Class of committed instruction (Count)
system.cpu.commit.committedInstType_0::SimdMisc        23880      0.89%     73.59% # Class of committed instruction (Count)
system.cpu.commit.committedInstType_0::SimdMult            0      0.00%     73.59% # Class of committed instruction (Count)
system.cpu.commit.committedInstType_0::SimdMultAcc            0      0.00%     73.59% # Class of committed instruction (Count)
system.cpu.commit.committedInstType_0::SimdShift          342      0.01%     73.60% # Class of committed instruction (Count)
system.cpu.commit.committedInstType_0::SimdShiftAcc            0      0.00%     73.60% # Class of committed instruction (Count)
system.cpu.commit.committedInstType_0::SimdDiv            0      0.00%     73.60% # Class of committed instruction (Count)
system.cpu.commit.committedInstType_0::SimdSqrt            0      0.00%     73.60% # Class of committed instruction (Count)
system.cpu.commit.committedInstType_0::SimdFloatAdd            0      0.00%     73.60% # Class of committed instruction (Count)
system.cpu.commit.committedInstType_0::SimdFloatAlu            0      0.00%     73.60% # Class of committed instruction (Count)
system.cpu.commit.committedInstType_0::SimdFloatCmp            0      0.00%     73.60% # Class of committed instruction (Count)
system.cpu.commit.committedInstType_0::SimdFloatCvt          399      0.01%     73.62% # Class of committed instruction (Count)
system.cpu.commit.committedInstType_0::SimdFloatDiv            1      0.00%     73.62% # Class of committed instruction (Count)
system.cpu.commit.committedInstType_0::SimdFloatMisc            0      0.00%     73.62% # Class of committed instruction (Count)
system.cpu.commit.committedInstType_0::SimdFloatMult            0      0.00%     73.62% # Class of committed instruction (Count)
system.cpu.commit.committedInstType_0::SimdFloatMultAcc            0      0.00%     73.62% # Class of committed instruction (Count)
system.cpu.commit.committedInstType_0::SimdFloatSqrt           99      0.00%     73.62% # Class of committed instruction (Count)
system.cpu.commit.committedInstType_0::SimdReduceAdd            0      0.00%     73.62% # Class of committed instruction (Count)
system.cpu.commit.committedInstType_0::SimdReduceAlu            0      0.00%     73.62% # Class of committed instruction (Count)
system.cpu.commit.committedInstType_0::SimdReduceCmp            0      0.00%     73.62% # Class of committed instruction (Count)
system.cpu.commit.committedInstType_0::SimdFloatReduceAdd            0      0.00%     73.62% # Class of committed instruction (Count)
system.cpu.commit.committedInstType_0::SimdFloatReduceCmp            0      0.00%     73.62% # Class of committed instruction (Count)
system.cpu.commit.committedInstType_0::SimdAes            0      0.00%     73.62% # Class of committed instruction (Count)
system.cpu.commit.committedInstType_0::SimdAesMix            0      0.00%     73.62% # Class of committed instruction (Count)
system.cpu.commit.committedInstType_0::SimdSha1Hash            0      0.00%     73.62% # Class of committed instruction (Count)
system.cpu.commit.committedInstType_0::SimdSha1Hash2            0      0.00%     73.62% # Class of committed instruction (Count)
system.cpu.commit.committedInstType_0::SimdSha256Hash            0      0.00%     73.62% # Class of committed instruction (Count)
system.cpu.commit.committedInstType_0::SimdSha256Hash2            0      0.00%     73.62% # Class of committed instruction (Count)
system.cpu.commit.committedInstType_0::SimdShaSigma2            0      0.00%     73.62% # Class of committed instruction (Count)
system.cpu.commit.committedInstType_0::SimdShaSigma3            0      0.00%     73.62% # Class of committed instruction (Count)
system.cpu.commit.committedInstType_0::SimdPredAlu            0      0.00%     73.62% # Class of committed instruction (Count)
system.cpu.commit.committedInstType_0::MemRead       461271     17.23%     90.86% # Class of committed instruction (Count)
system.cpu.commit.committedInstType_0::MemWrite       229249      8.57%     99.42% # Class of committed instruction (Count)
system.cpu.commit.committedInstType_0::FloatMemRead         9142      0.34%     99.76% # Class of committed instruction (Count)
system.cpu.commit.committedInstType_0::FloatMemWrite         6326      0.24%    100.00% # Class of committed instruction (Count)
system.cpu.commit.committedInstType_0::IprAccess            0      0.00%    100.00% # Class of committed instruction (Count)
system.cpu.commit.committedInstType_0::InstPrefetch            0      0.00%    100.00% # Class of committed instruction (Count)
system.cpu.commit.committedInstType_0::total      2676519                       # Class of committed instruction (Count)
system.cpu.commit.commitEligibleSamples        170630                       # number cycles where commit BW limit reached (Cycle)
system.cpu.dcache.demandHits::cpu.data         555593                       # number of demand (read+write) hits (Count)
system.cpu.dcache.demandHits::total            555593                       # number of demand (read+write) hits (Count)
system.cpu.dcache.overallHits::cpu.data        555593                       # number of overall hits (Count)
system.cpu.dcache.overallHits::total           555593                       # number of overall hits (Count)
system.cpu.dcache.demandMisses::cpu.data        18620                       # number of demand (read+write) misses (Count)
system.cpu.dcache.demandMisses::total           18620                       # number of demand (read+write) misses (Count)
system.cpu.dcache.overallMisses::cpu.data        18620                       # number of overall misses (Count)
system.cpu.dcache.overallMisses::total          18620                       # number of overall misses (Count)
system.cpu.dcache.demandMissLatency::cpu.data    662445499                       # number of demand (read+write) miss ticks (Tick)
system.cpu.dcache.demandMissLatency::total    662445499                       # number of demand (read+write) miss ticks (Tick)
system.cpu.dcache.overallMissLatency::cpu.data    662445499                       # number of overall miss ticks (Tick)
system.cpu.dcache.overallMissLatency::total    662445499                       # number of overall miss ticks (Tick)
system.cpu.dcache.demandAccesses::cpu.data       574213                       # number of demand (read+write) accesses (Count)
system.cpu.dcache.demandAccesses::total        574213                       # number of demand (read+write) accesses (Count)
system.cpu.dcache.overallAccesses::cpu.data       574213                       # number of overall (read+write) accesses (Count)
system.cpu.dcache.overallAccesses::total       574213                       # number of overall (read+write) accesses (Count)
system.cpu.dcache.demandMissRate::cpu.data     0.032427                       # miss rate for demand accesses (Ratio)
system.cpu.dcache.demandMissRate::total      0.032427                       # miss rate for demand accesses (Ratio)
system.cpu.dcache.overallMissRate::cpu.data     0.032427                       # miss rate for overall accesses (Ratio)
system.cpu.dcache.overallMissRate::total     0.032427                       # miss rate for overall accesses (Ratio)
system.cpu.dcache.demandAvgMissLatency::cpu.data 35577.094468                       # average overall miss latency in ticks ((Tick/Count))
system.cpu.dcache.demandAvgMissLatency::total 35577.094468                       # average overall miss latency in ticks ((Tick/Count))
system.cpu.dcache.overallAvgMissLatency::cpu.data 35577.094468                       # average overall miss latency ((Tick/Count))
system.cpu.dcache.overallAvgMissLatency::total 35577.094468                       # average overall miss latency ((Tick/Count))
system.cpu.dcache.blockedCycles::no_mshrs        17054                       # number of cycles access was blocked (Cycle)
system.cpu.dcache.blockedCycles::no_targets            4                       # number of cycles access was blocked (Cycle)
system.cpu.dcache.blockedCauses::no_mshrs          395                       # number of times access was blocked (Count)
system.cpu.dcache.blockedCauses::no_targets            1                       # number of times access was blocked (Count)
system.cpu.dcache.avgBlocked::no_mshrs      43.174684                       # average number of cycles each access was blocked ((Cycle/Count))
system.cpu.dcache.avgBlocked::no_targets            4                       # average number of cycles each access was blocked ((Cycle/Count))
system.cpu.dcache.writebacks::writebacks         7926                       # number of writebacks (Count)
system.cpu.dcache.writebacks::total              7926                       # number of writebacks (Count)
system.cpu.dcache.demandMshrHits::cpu.data         8245                       # number of demand (read+write) MSHR hits (Count)
system.cpu.dcache.demandMshrHits::total          8245                       # number of demand (read+write) MSHR hits (Count)
system.cpu.dcache.overallMshrHits::cpu.data         8245                       # number of overall MSHR hits (Count)
system.cpu.dcache.overallMshrHits::total         8245                       # number of overall MSHR hits (Count)
system.cpu.dcache.demandMshrMisses::cpu.data        10375                       # number of demand (read+write) MSHR misses (Count)
system.cpu.dcache.demandMshrMisses::total        10375                       # number of demand (read+write) MSHR misses (Count)
system.cpu.dcache.overallMshrMisses::cpu.data        10375                       # number of overall MSHR misses (Count)
system.cpu.dcache.overallMshrMisses::total        10375                       # number of overall MSHR misses (Count)
system.cpu.dcache.demandMshrMissLatency::cpu.data    330246000                       # number of demand (read+write) MSHR miss ticks (Tick)
system.cpu.dcache.demandMshrMissLatency::total    330246000                       # number of demand (read+write) MSHR miss ticks (Tick)
system.cpu.dcache.overallMshrMissLatency::cpu.data    330246000                       # number of overall MSHR miss ticks (Tick)
system.cpu.dcache.overallMshrMissLatency::total    330246000                       # number of overall MSHR miss ticks (Tick)
system.cpu.dcache.demandMshrMissRate::cpu.data     0.018068                       # mshr miss ratio for demand accesses (Ratio)
system.cpu.dcache.demandMshrMissRate::total     0.018068                       # mshr miss ratio for demand accesses (Ratio)
system.cpu.dcache.overallMshrMissRate::cpu.data     0.018068                       # mshr miss ratio for overall accesses (Ratio)
system.cpu.dcache.overallMshrMissRate::total     0.018068                       # mshr miss ratio for overall accesses (Ratio)
system.cpu.dcache.demandAvgMshrMissLatency::cpu.data 31830.939759                       # average overall mshr miss latency ((Tick/Count))
system.cpu.dcache.demandAvgMshrMissLatency::total 31830.939759                       # average overall mshr miss latency ((Tick/Count))
system.cpu.dcache.overallAvgMshrMissLatency::cpu.data 31830.939759                       # average overall mshr miss latency ((Tick/Count))
system.cpu.dcache.overallAvgMshrMissLatency::total 31830.939759                       # average overall mshr miss latency ((Tick/Count))
system.cpu.dcache.replacements                   9353                       # number of replacements (Count)
system.cpu.dcache.LockedRMWReadReq.hits::cpu.data         2489                       # number of LockedRMWReadReq hits (Count)
system.cpu.dcache.LockedRMWReadReq.hits::total         2489                       # number of LockedRMWReadReq hits (Count)
system.cpu.dcache.LockedRMWReadReq.misses::cpu.data            3                       # number of LockedRMWReadReq misses (Count)
system.cpu.dcache.LockedRMWReadReq.misses::total            3                       # number of LockedRMWReadReq misses (Count)
system.cpu.dcache.LockedRMWReadReq.missLatency::cpu.data       120500                       # number of LockedRMWReadReq miss ticks (Tick)
system.cpu.dcache.LockedRMWReadReq.missLatency::total       120500                       # number of LockedRMWReadReq miss ticks (Tick)
system.cpu.dcache.LockedRMWReadReq.accesses::cpu.data         2492                       # number of LockedRMWReadReq accesses(hits+misses) (Count)
system.cpu.dcache.LockedRMWReadReq.accesses::total         2492                       # number of LockedRMWReadReq accesses(hits+misses) (Count)
system.cpu.dcache.LockedRMWReadReq.missRate::cpu.data     0.001204                       # miss rate for LockedRMWReadReq accesses (Ratio)
system.cpu.dcache.LockedRMWReadReq.missRate::total     0.001204                       # miss rate for LockedRMWReadReq accesses (Ratio)
system.cpu.dcache.LockedRMWReadReq.avgMissLatency::cpu.data 40166.666667                       # average LockedRMWReadReq miss latency ((Tick/Count))
system.cpu.dcache.LockedRMWReadReq.avgMissLatency::total 40166.666667                       # average LockedRMWReadReq miss latency ((Tick/Count))
system.cpu.dcache.LockedRMWReadReq.mshrMisses::cpu.data            3                       # number of LockedRMWReadReq MSHR misses (Count)
system.cpu.dcache.LockedRMWReadReq.mshrMisses::total            3                       # number of LockedRMWReadReq MSHR misses (Count)
system.cpu.dcache.LockedRMWReadReq.mshrMissLatency::cpu.data      9583500                       # number of LockedRMWReadReq MSHR miss ticks (Tick)
system.cpu.dcache.LockedRMWReadReq.mshrMissLatency::total      9583500                       # number of LockedRMWReadReq MSHR miss ticks (Tick)
system.cpu.dcache.LockedRMWReadReq.mshrMissRate::cpu.data     0.001204                       # mshr miss rate for LockedRMWReadReq accesses (Ratio)
system.cpu.dcache.LockedRMWReadReq.mshrMissRate::total     0.001204                       # mshr miss rate for LockedRMWReadReq accesses (Ratio)
system.cpu.dcache.LockedRMWReadReq.avgMshrMissLatency::cpu.data      3194500                       # average LockedRMWReadReq mshr miss latency ((Tick/Count))
system.cpu.dcache.LockedRMWReadReq.avgMshrMissLatency::total      3194500                       # average LockedRMWReadReq mshr miss latency ((Tick/Count))
system.cpu.dcache.LockedRMWWriteReq.hits::cpu.data         2492                       # number of LockedRMWWriteReq hits (Count)
system.cpu.dcache.LockedRMWWriteReq.hits::total         2492                       # number of LockedRMWWriteReq hits (Count)
system.cpu.dcache.LockedRMWWriteReq.accesses::cpu.data         2492                       # number of LockedRMWWriteReq accesses(hits+misses) (Count)
system.cpu.dcache.LockedRMWWriteReq.accesses::total         2492                       # number of LockedRMWWriteReq accesses(hits+misses) (Count)
system.cpu.dcache.ReadReq.hits::cpu.data       330141                       # number of ReadReq hits (Count)
system.cpu.dcache.ReadReq.hits::total          330141                       # number of ReadReq hits (Count)
system.cpu.dcache.ReadReq.misses::cpu.data        10927                       # number of ReadReq misses (Count)
system.cpu.dcache.ReadReq.misses::total         10927                       # number of ReadReq misses (Count)
system.cpu.dcache.ReadReq.missLatency::cpu.data    447198000                       # number of ReadReq miss ticks (Tick)
system.cpu.dcache.ReadReq.missLatency::total    447198000                       # number of ReadReq miss ticks (Tick)
system.cpu.dcache.ReadReq.accesses::cpu.data       341068                       # number of ReadReq accesses(hits+misses) (Count)
system.cpu.dcache.ReadReq.accesses::total       341068                       # number of ReadReq accesses(hits+misses) (Count)
system.cpu.dcache.ReadReq.missRate::cpu.data     0.032038                       # miss rate for ReadReq accesses (Ratio)
system.cpu.dcache.ReadReq.missRate::total     0.032038                       # miss rate for ReadReq accesses (Ratio)
system.cpu.dcache.ReadReq.avgMissLatency::cpu.data 40925.963210                       # average ReadReq miss latency ((Tick/Count))
system.cpu.dcache.ReadReq.avgMissLatency::total 40925.963210                       # average ReadReq miss latency ((Tick/Count))
system.cpu.dcache.ReadReq.mshrHits::cpu.data         8240                       # number of ReadReq MSHR hits (Count)
system.cpu.dcache.ReadReq.mshrHits::total         8240                       # number of ReadReq MSHR hits (Count)
system.cpu.dcache.ReadReq.mshrMisses::cpu.data         2687                       # number of ReadReq MSHR misses (Count)
system.cpu.dcache.ReadReq.mshrMisses::total         2687                       # number of ReadReq MSHR misses (Count)
system.cpu.dcache.ReadReq.mshrMissLatency::cpu.data    123283000                       # number of ReadReq MSHR miss ticks (Tick)
system.cpu.dcache.ReadReq.mshrMissLatency::total    123283000                       # number of ReadReq MSHR miss ticks (Tick)
system.cpu.dcache.ReadReq.mshrMissRate::cpu.data     0.007878                       # mshr miss rate for ReadReq accesses (Ratio)
system.cpu.dcache.ReadReq.mshrMissRate::total     0.007878                       # mshr miss rate for ReadReq accesses (Ratio)
system.cpu.dcache.ReadReq.avgMshrMissLatency::cpu.data 45881.280238                       # average ReadReq mshr miss latency ((Tick/Count))
system.cpu.dcache.ReadReq.avgMshrMissLatency::total 45881.280238                       # average ReadReq mshr miss latency ((Tick/Count))
system.cpu.dcache.WriteReq.hits::cpu.data       225452                       # number of WriteReq hits (Count)
system.cpu.dcache.WriteReq.hits::total         225452                       # number of WriteReq hits (Count)
system.cpu.dcache.WriteReq.misses::cpu.data         7693                       # number of WriteReq misses (Count)
system.cpu.dcache.WriteReq.misses::total         7693                       # number of WriteReq misses (Count)
system.cpu.dcache.WriteReq.missLatency::cpu.data    215247499                       # number of WriteReq miss ticks (Tick)
system.cpu.dcache.WriteReq.missLatency::total    215247499                       # number of WriteReq miss ticks (Tick)
system.cpu.dcache.WriteReq.accesses::cpu.data       233145                       # number of WriteReq accesses(hits+misses) (Count)
system.cpu.dcache.WriteReq.accesses::total       233145                       # number of WriteReq accesses(hits+misses) (Count)
system.cpu.dcache.WriteReq.missRate::cpu.data     0.032997                       # miss rate for WriteReq accesses (Ratio)
system.cpu.dcache.WriteReq.missRate::total     0.032997                       # miss rate for WriteReq accesses (Ratio)
system.cpu.dcache.WriteReq.avgMissLatency::cpu.data 27979.656701                       # average WriteReq miss latency ((Tick/Count))
system.cpu.dcache.WriteReq.avgMissLatency::total 27979.656701                       # average WriteReq miss latency ((Tick/Count))
system.cpu.dcache.WriteReq.mshrHits::cpu.data            5                       # number of WriteReq MSHR hits (Count)
system.cpu.dcache.WriteReq.mshrHits::total            5                       # number of WriteReq MSHR hits (Count)
system.cpu.dcache.WriteReq.mshrMisses::cpu.data         7688                       # number of WriteReq MSHR misses (Count)
system.cpu.dcache.WriteReq.mshrMisses::total         7688                       # number of WriteReq MSHR misses (Count)
system.cpu.dcache.WriteReq.mshrMissLatency::cpu.data    206963000                       # number of WriteReq MSHR miss ticks (Tick)
system.cpu.dcache.WriteReq.mshrMissLatency::total    206963000                       # number of WriteReq MSHR miss ticks (Tick)
system.cpu.dcache.WriteReq.mshrMissRate::cpu.data     0.032975                       # mshr miss rate for WriteReq accesses (Ratio)
system.cpu.dcache.WriteReq.mshrMissRate::total     0.032975                       # mshr miss rate for WriteReq accesses (Ratio)
system.cpu.dcache.WriteReq.avgMshrMissLatency::cpu.data 26920.265349                       # average WriteReq mshr miss latency ((Tick/Count))
system.cpu.dcache.WriteReq.avgMshrMissLatency::total 26920.265349                       # average WriteReq mshr miss latency ((Tick/Count))
system.cpu.dcache.power_state.pwrStateResidencyTicks::UNDEFINED    765258500                       # Cumulative time (in ticks) in various power states (Tick)
system.cpu.dcache.tags.tagsInUse           953.727358                       # Average ticks per tags in use ((Tick/Count))
system.cpu.dcache.tags.totalRefs               570954                       # Total number of references to valid blocks. (Count)
system.cpu.dcache.tags.sampledRefs              10377                       # Sample count of references to valid blocks. (Count)
system.cpu.dcache.tags.avgRefs              55.021104                       # Average number of references to valid blocks. ((Count/Count))
system.cpu.dcache.tags.warmupTick              170500                       # The tick when the warmup percentage was hit. (Tick)
system.cpu.dcache.tags.occupancies::cpu.data   953.727358                       # Average occupied blocks per tick, per requestor ((Count/Tick))
system.cpu.dcache.tags.avgOccs::cpu.data     0.931374                       # Average percentage of cache occupancy ((Ratio/Tick))
system.cpu.dcache.tags.avgOccs::total        0.931374                       # Average percentage of cache occupancy ((Ratio/Tick))
system.cpu.dcache.tags.occupanciesTaskId::1024         1024                       # Occupied blocks per task id (Count)
system.cpu.dcache.tags.ageTaskId_1024::0          100                       # Occupied blocks per task id, per block age (Count)
system.cpu.dcache.tags.ageTaskId_1024::1          412                       # Occupied blocks per task id, per block age (Count)
system.cpu.dcache.tags.ageTaskId_1024::2          512                       # Occupied blocks per task id, per block age (Count)
system.cpu.dcache.tags.ratioOccsTaskId::1024            1                       # Ratio of occupied blocks and all blocks, per task id (Ratio)
system.cpu.dcache.tags.tagAccesses            2327165                       # Number of tag accesses (Count)
system.cpu.dcache.tags.dataAccesses           2327165                       # Number of data accesses (Count)
system.cpu.dcache.tags.power_state.pwrStateResidencyTicks::UNDEFINED    765258500                       # Cumulative time (in ticks) in various power states (Tick)
system.cpu.decode.idleCycles                   265639                       # Number of cycles decode is idle (Cycle)
system.cpu.decode.blockedCycles                677083                       # Number of cycles decode is blocked (Cycle)
system.cpu.decode.runCycles                    367481                       # Number of cycles decode is running (Cycle)
system.cpu.decode.unblockCycles                 96913                       # Number of cycles decode is unblocking (Cycle)
system.cpu.decode.squashCycles                   9910                       # Number of cycles decode is squashing (Cycle)
system.cpu.decode.branchResolved               129684                       # Number of times decode resolved a branch (Count)
system.cpu.decode.branchMispred                   735                       # Number of times decode detected a branch misprediction (Count)
system.cpu.decode.decodedInsts                3081621                       # Number of instructions handled by decode (Count)
system.cpu.decode.squashedInsts                  3438                       # Number of squashed instructions handled by decode (Count)
system.cpu.fetch.icacheStallCycles             321861                       # Number of cycles fetch is stalled on an Icache miss (Cycle)
system.cpu.fetch.insts                        1820025                       # Number of instructions fetch has processed (Count)
system.cpu.fetch.branches                      277532                       # Number of branches that fetch encountered (Count)
system.cpu.fetch.predictedBranches             165872                       # Number of branches that fetch has predicted taken (Count)
system.cpu.fetch.cycles                       1081440                       # Number of cycles fetch has run and was not squashing or blocked (Cycle)
system.cpu.fetch.squashCycles                   21260                       # Number of cycles fetch has spent squashing (Cycle)
system.cpu.fetch.miscStallCycles                  364                       # Number of cycles fetch has spent waiting on interrupts, or bad addresses, or out of MSHRs (Cycle)
system.cpu.fetch.pendingTrapStallCycles          2731                       # Number of stall cycles due to pending traps (Cycle)
system.cpu.fetch.cacheLines                    265320                       # Number of cache lines fetched (Count)
system.cpu.fetch.icacheSquashes                  3754                       # Number of outstanding Icache misses that were squashed (Count)
system.cpu.fetch.nisnDist::samples            1417026                       # Number of instructions fetched each cycle (Total) (Count)
system.cpu.fetch.nisnDist::mean              2.252206                       # Number of instructions fetched each cycle (Total) (Count)
system.cpu.fetch.nisnDist::stdev             3.252556                       # Number of instructions fetched each cycle (Total) (Count)
system.cpu.fetch.nisnDist::underflows               0      0.00%      0.00% # Number of instructions fetched each cycle (Total) (Count)
system.cpu.fetch.nisnDist::0                   879961     62.10%     62.10% # Number of instructions fetched each cycle (Total) (Count)
system.cpu.fetch.nisnDist::1                    27125      1.91%     64.01% # Number of instructions fetched each cycle (Total) (Count)
system.cpu.fetch.nisnDist::2                    54974      3.88%     67.89% # Number of instructions fetched each cycle (Total) (Count)
system.cpu.fetch.nisnDist::3                    29720      2.10%     69.99% # Number of instructions fetched each cycle (Total) (Count)
system.cpu.fetch.nisnDist::4                    53703      3.79%     73.78% # Number of instructions fetched each cycle (Total) (Count)
system.cpu.fetch.nisnDist::5                    49034      3.46%     77.24% # Number of instructions fetched each cycle (Total) (Count)
system.cpu.fetch.nisnDist::6                    30631      2.16%     79.40% # Number of instructions fetched each cycle (Total) (Count)
system.cpu.fetch.nisnDist::7                    13591      0.96%     80.36% # Number of instructions fetched each cycle (Total) (Count)
system.cpu.fetch.nisnDist::8                   278287     19.64%    100.00% # Number of instructions fetched each cycle (Total) (Count)
system.cpu.fetch.nisnDist::overflows                0      0.00%    100.00% # Number of instructions fetched each cycle (Total) (Count)
system.cpu.fetch.nisnDist::min_value                0                       # Number of instructions fetched each cycle (Total) (Count)
system.cpu.fetch.nisnDist::max_value                8                       # Number of instructions fetched each cycle (Total) (Count)
system.cpu.fetch.nisnDist::total              1417026                       # Number of instructions fetched each cycle (Total) (Count)
system.cpu.fetch.branchRate                  0.181332                       # Number of branch fetches per cycle (Ratio)
system.cpu.fetch.rate                        1.189156                       # Number of inst fetches per cycle ((Count/Cycle))
system.cpu.icache.demandHits::cpu.inst         262834                       # number of demand (read+write) hits (Count)
system.cpu.icache.demandHits::total            262834                       # number of demand (read+write) hits (Count)
system.cpu.icache.overallHits::cpu.inst        262834                       # number of overall hits (Count)
system.cpu.icache.overallHits::total           262834                       # number of overall hits (Count)
system.cpu.icache.demandMisses::cpu.inst         2486                       # number of demand (read+write) misses (Count)
system.cpu.icache.demandMisses::total            2486                       # number of demand (read+write) misses (Count)
system.cpu.icache.overallMisses::cpu.inst         2486                       # number of overall misses (Count)
system.cpu.icache.overallMisses::total           2486                       # number of overall misses (Count)
system.cpu.icache.demandMissLatency::cpu.inst    151621000                       # number of demand (read+write) miss ticks (Tick)
system.cpu.icache.demandMissLatency::total    151621000                       # number of demand (read+write) miss ticks (Tick)
system.cpu.icache.overallMissLatency::cpu.inst    151621000                       # number of overall miss ticks (Tick)
system.cpu.icache.overallMissLatency::total    151621000                       # number of overall miss ticks (Tick)
system.cpu.icache.demandAccesses::cpu.inst       265320                       # number of demand (read+write) accesses (Count)
system.cpu.icache.demandAccesses::total        265320                       # number of demand (read+write) accesses (Count)
system.cpu.icache.overallAccesses::cpu.inst       265320                       # number of overall (read+write) accesses (Count)
system.cpu.icache.overallAccesses::total       265320                       # number of overall (read+write) accesses (Count)
system.cpu.icache.demandMissRate::cpu.inst     0.009370                       # miss rate for demand accesses (Ratio)
system.cpu.icache.demandMissRate::total      0.009370                       # miss rate for demand accesses (Ratio)
system.cpu.icache.overallMissRate::cpu.inst     0.009370                       # miss rate for overall accesses (Ratio)
system.cpu.icache.overallMissRate::total     0.009370                       # miss rate for overall accesses (Ratio)
system.cpu.icache.demandAvgMissLatency::cpu.inst 60989.943685                       # average overall miss latency in ticks ((Tick/Count))
system.cpu.icache.demandAvgMissLatency::total 60989.943685                       # average overall miss latency in ticks ((Tick/Count))
system.cpu.icache.overallAvgMissLatency::cpu.inst 60989.943685                       # average overall miss latency ((Tick/Count))
system.cpu.icache.overallAvgMissLatency::total 60989.943685                       # average overall miss latency ((Tick/Count))
system.cpu.icache.blockedCycles::no_mshrs          309                       # number of cycles access was blocked (Cycle)
system.cpu.icache.blockedCycles::no_targets            0                       # number of cycles access was blocked (Cycle)
system.cpu.icache.blockedCauses::no_mshrs            5                       # number of times access was blocked (Count)
system.cpu.icache.blockedCauses::no_targets            0                       # number of times access was blocked (Count)
system.cpu.icache.avgBlocked::no_mshrs      61.800000                       # average number of cycles each access was blocked ((Cycle/Count))
system.cpu.icache.avgBlocked::no_targets          nan                       # average number of cycles each access was blocked ((Cycle/Count))
system.cpu.icache.writebacks::writebacks            2                       # number of writebacks (Count)
system.cpu.icache.writebacks::total                 2                       # number of writebacks (Count)
system.cpu.icache.demandMshrHits::cpu.inst          584                       # number of demand (read+write) MSHR hits (Count)
system.cpu.icache.demandMshrHits::total           584                       # number of demand (read+write) MSHR hits (Count)
system.cpu.icache.overallMshrHits::cpu.inst          584                       # number of overall MSHR hits (Count)
system.cpu.icache.overallMshrHits::total          584                       # number of overall MSHR hits (Count)
system.cpu.icache.demandMshrMisses::cpu.inst         1902                       # number of demand (read+write) MSHR misses (Count)
system.cpu.icache.demandMshrMisses::total         1902                       # number of demand (read+write) MSHR misses (Count)
system.cpu.icache.overallMshrMisses::cpu.inst         1902                       # number of overall MSHR misses (Count)
system.cpu.icache.overallMshrMisses::total         1902                       # number of overall MSHR misses (Count)
system.cpu.icache.demandMshrMissLatency::cpu.inst    119343500                       # number of demand (read+write) MSHR miss ticks (Tick)
system.cpu.icache.demandMshrMissLatency::total    119343500                       # number of demand (read+write) MSHR miss ticks (Tick)
system.cpu.icache.overallMshrMissLatency::cpu.inst    119343500                       # number of overall MSHR miss ticks (Tick)
system.cpu.icache.overallMshrMissLatency::total    119343500                       # number of overall MSHR miss ticks (Tick)
system.cpu.icache.demandMshrMissRate::cpu.inst     0.007169                       # mshr miss ratio for demand accesses (Ratio)
system.cpu.icache.demandMshrMissRate::total     0.007169                       # mshr miss ratio for demand accesses (Ratio)
system.cpu.icache.overallMshrMissRate::cpu.inst     0.007169                       # mshr miss ratio for overall accesses (Ratio)
system.cpu.icache.overallMshrMissRate::total     0.007169                       # mshr miss ratio for overall accesses (Ratio)
system.cpu.icache.demandAvgMshrMissLatency::cpu.inst 62746.319664                       # average overall mshr miss latency ((Tick/Count))
system.cpu.icache.demandAvgMshrMissLatency::total 62746.319664                       # average overall mshr miss latency ((Tick/Count))
system.cpu.icache.overallAvgMshrMissLatency::cpu.inst 62746.319664                       # average overall mshr miss latency ((Tick/Count))
system.cpu.icache.overallAvgMshrMissLatency::total 62746.319664                       # average overall mshr miss latency ((Tick/Count))
system.cpu.icache.replacements                   1644                       # number of replacements (Count)
system.cpu.icache.ReadReq.hits::cpu.inst       262834                       # number of ReadReq hits (Count)
system.cpu.icache.ReadReq.hits::total          262834                       # number of ReadReq hits (Count)
system.cpu.icache.ReadReq.misses::cpu.inst         2486                       # number of ReadReq misses (Count)
system.cpu.icache.ReadReq.misses::total          2486                       # number of ReadReq misses (Count)
system.cpu.icache.ReadReq.missLatency::cpu.inst    151621000                       # number of ReadReq miss ticks (Tick)
system.cpu.icache.ReadReq.missLatency::total    151621000                       # number of ReadReq miss ticks (Tick)
system.cpu.icache.ReadReq.accesses::cpu.inst       265320                       # number of ReadReq accesses(hits+misses) (Count)
system.cpu.icache.ReadReq.accesses::total       265320                       # number of ReadReq accesses(hits+misses) (Count)
system.cpu.icache.ReadReq.missRate::cpu.inst     0.009370                       # miss rate for ReadReq accesses (Ratio)
system.cpu.icache.ReadReq.missRate::total     0.009370                       # miss rate for ReadReq accesses (Ratio)
system.cpu.icache.ReadReq.avgMissLatency::cpu.inst 60989.943685                       # average ReadReq miss latency ((Tick/Count))
system.cpu.icache.ReadReq.avgMissLatency::total 60989.943685                       # average ReadReq miss latency ((Tick/Count))
system.cpu.icache.ReadReq.mshrHits::cpu.inst          584                       # number of ReadReq MSHR hits (Count)
system.cpu.icache.ReadReq.mshrHits::total          584                       # number of ReadReq MSHR hits (Count)
system.cpu.icache.ReadReq.mshrMisses::cpu.inst         1902                       # number of ReadReq MSHR misses (Count)
system.cpu.icache.ReadReq.mshrMisses::total         1902                       # number of ReadReq MSHR misses (Count)
system.cpu.icache.ReadReq.mshrMissLatency::cpu.inst    119343500                       # number of ReadReq MSHR miss ticks (Tick)
system.cpu.icache.ReadReq.mshrMissLatency::total    119343500                       # number of ReadReq MSHR miss ticks (Tick)
system.cpu.icache.ReadReq.mshrMissRate::cpu.inst     0.007169                       # mshr miss rate for ReadReq accesses (Ratio)
system.cpu.icache.ReadReq.mshrMissRate::total     0.007169                       # mshr miss rate for ReadReq accesses (Ratio)
system.cpu.icache.ReadReq.avgMshrMissLatency::cpu.inst 62746.319664                       # average ReadReq mshr miss latency ((Tick/Count))
system.cpu.icache.ReadReq.avgMshrMissLatency::total 62746.319664                       # average ReadReq mshr miss latency ((Tick/Count))
system.cpu.icache.power_state.pwrStateResidencyTicks::UNDEFINED    765258500                       # Cumulative time (in ticks) in various power states (Tick)
system.cpu.icache.tags.tagsInUse           251.738154                       # Average ticks per tags in use ((Tick/Count))
system.cpu.icache.tags.totalRefs               264735                       # Total number of references to valid blocks. (Count)
system.cpu.icache.tags.sampledRefs               1901                       # Sample count of references to valid blocks. (Count)
system.cpu.icache.tags.avgRefs             139.260915                       # Average number of references to valid blocks. ((Count/Count))
system.cpu.icache.tags.warmupTick               82000                       # The tick when the warmup percentage was hit. (Tick)
system.cpu.icache.tags.occupancies::cpu.inst   251.738154                       # Average occupied blocks per tick, per requestor ((Count/Tick))
system.cpu.icache.tags.avgOccs::cpu.inst     0.983352                       # Average percentage of cache occupancy ((Ratio/Tick))
system.cpu.icache.tags.avgOccs::total        0.983352                       # Average percentage of cache occupancy ((Ratio/Tick))
system.cpu.icache.tags.occupanciesTaskId::1024          256                       # Occupied blocks per task id (Count)
system.cpu.icache.tags.ageTaskId_1024::0          173                       # Occupied blocks per task id, per block age (Count)
system.cpu.icache.tags.ageTaskId_1024::1           19                       # Occupied blocks per task id, per block age (Count)
system.cpu.icache.tags.ageTaskId_1024::2           64                       # Occupied blocks per task id, per block age (Count)
system.cpu.icache.tags.ratioOccsTaskId::1024            1                       # Ratio of occupied blocks and all blocks, per task id (Ratio)
system.cpu.icache.tags.tagAccesses            1063181                       # Number of tag accesses (Count)
system.cpu.icache.tags.dataAccesses           1063181                       # Number of data accesses (Count)
system.cpu.icache.tags.power_state.pwrStateResidencyTicks::UNDEFINED    765258500                       # Cumulative time (in ticks) in various power states (Tick)
system.cpu.iew.idleCycles                           0                       # Number of cycles IEW is idle (Cycle)
system.cpu.iew.squashCycles                      9910                       # Number of cycles IEW is squashing (Cycle)
system.cpu.iew.blockCycles                     150202                       # Number of cycles IEW is blocking (Cycle)
system.cpu.iew.unblockCycles                    21846                       # Number of cycles IEW is unblocking (Cycle)
system.cpu.iew.dispatchedInsts                2998549                       # Number of instructions dispatched to IQ (Count)
system.cpu.iew.dispSquashedInsts                  312                       # Number of squashed instructions skipped by dispatch (Count)
system.cpu.iew.dispLoadInsts                   539215                       # Number of dispatched load instructions (Count)
system.cpu.iew.dispStoreInsts                  250960                       # Number of dispatched store instructions (Count)
system.cpu.iew.dispNonSpecInsts                  2534                       # Number of dispatched non-speculative instructions (Count)
system.cpu.iew.iqFullEvents                      4861                       # Number of times the IQ has become full, causing a stall (Count)
system.cpu.iew.lsqFullEvents                    14730                       # Number of times the LSQ has become full, causing a stall (Count)
system.cpu.iew.memOrderViolationEvents           5046                       # Number of memory order violations (Count)
system.cpu.iew.predictedTakenIncorrect           1855                       # Number of branches that were predicted taken incorrectly (Count)
system.cpu.iew.predictedNotTakenIncorrect         3437                       # Number of branches that were predicted not taken incorrectly (Count)
system.cpu.iew.branchMispredicts                 5292                       # Number of branch mispredicts detected at execute (Count)
system.cpu.iew.instsToCommit                  2874304                       # Cumulative count of insts sent to commit (Count)
system.cpu.iew.writebackCount                 2867513                       # Cumulative count of insts written-back (Count)
system.cpu.iew.producerInst                   2140111                       # Number of instructions producing a value (Count)
system.cpu.iew.consumerInst                   3468625                       # Number of instructions consuming a value (Count)
system.cpu.iew.wbRate                        1.873557                       # Insts written-back per cycle ((Count/Cycle))
system.cpu.iew.wbFanout                      0.616991                       # Average fanout of values written-back ((Count/Count))
system.cpu.interrupts.clk_domain.clock           8000                       # Clock period in ticks (Tick)
system.cpu.l2cache.demandHits::cpu.inst           316                       # number of demand (read+write) hits (Count)
system.cpu.l2cache.demandHits::cpu.data          7014                       # number of demand (read+write) hits (Count)
system.cpu.l2cache.demandHits::total             7330                       # number of demand (read+write) hits (Count)
system.cpu.l2cache.overallHits::cpu.inst          316                       # number of overall hits (Count)
system.cpu.l2cache.overallHits::cpu.data         7014                       # number of overall hits (Count)
system.cpu.l2cache.overallHits::total            7330                       # number of overall hits (Count)
system.cpu.l2cache.demandMisses::cpu.inst         1585                       # number of demand (read+write) misses (Count)
system.cpu.l2cache.demandMisses::cpu.data         3362                       # number of demand (read+write) misses (Count)
system.cpu.l2cache.demandMisses::total           4947                       # number of demand (read+write) misses (Count)
system.cpu.l2cache.overallMisses::cpu.inst         1585                       # number of overall misses (Count)
system.cpu.l2cache.overallMisses::cpu.data         3362                       # number of overall misses (Count)
system.cpu.l2cache.overallMisses::total          4947                       # number of overall misses (Count)
system.cpu.l2cache.demandMissLatency::cpu.inst    113156500                       # number of demand (read+write) miss ticks (Tick)
system.cpu.l2cache.demandMissLatency::cpu.data    241040000                       # number of demand (read+write) miss ticks (Tick)
system.cpu.l2cache.demandMissLatency::total    354196500                       # number of demand (read+write) miss ticks (Tick)
system.cpu.l2cache.overallMissLatency::cpu.inst    113156500                       # number of overall miss ticks (Tick)
system.cpu.l2cache.overallMissLatency::cpu.data    241040000                       # number of overall miss ticks (Tick)
system.cpu.l2cache.overallMissLatency::total    354196500                       # number of overall miss ticks (Tick)
system.cpu.l2cache.demandAccesses::cpu.inst         1901                       # number of demand (read+write) accesses (Count)
system.cpu.l2cache.demandAccesses::cpu.data        10376                       # number of demand (read+write) accesses (Count)
system.cpu.l2cache.demandAccesses::total        12277                       # number of demand (read+write) accesses (Count)
system.cpu.l2cache.overallAccesses::cpu.inst         1901                       # number of overall (read+write) accesses (Count)
system.cpu.l2cache.overallAccesses::cpu.data        10376                       # number of overall (read+write) accesses (Count)
system.cpu.l2cache.overallAccesses::total        12277                       # number of overall (read+write) accesses (Count)
system.cpu.l2cache.demandMissRate::cpu.inst     0.833772                       # miss rate for demand accesses (Ratio)
system.cpu.l2cache.demandMissRate::cpu.data     0.324017                       # miss rate for demand accesses (Ratio)
system.cpu.l2cache.demandMissRate::total     0.402949                       # miss rate for demand accesses (Ratio)
system.cpu.l2cache.overallMissRate::cpu.inst     0.833772                       # miss rate for overall accesses (Ratio)
system.cpu.l2cache.overallMissRate::cpu.data     0.324017                       # miss rate for overall accesses (Ratio)
system.cpu.l2cache.overallMissRate::total     0.402949                       # miss rate for overall accesses (Ratio)
system.cpu.l2cache.demandAvgMissLatency::cpu.inst 71392.113565                       # average overall miss latency in ticks ((Tick/Count))
system.cpu.l2cache.demandAvgMissLatency::cpu.data 71695.419393                       # average overall miss latency in ticks ((Tick/Count))
[...]
system.mem_ctrl.requestorReadAvgLat::cpu.data     25973.90                       # Per-requestor read average memory access latency ((Tick/Count))
system.mem_ctrl.dram.bytesRead::cpu.inst       101376                       # Number of bytes read from this memory (Byte)
system.mem_ctrl.dram.bytesRead::cpu.data       215168                       # Number of bytes read from this memory (Byte)
system.mem_ctrl.dram.bytesRead::total          316544                       # Number of bytes read from this memory (Byte)
system.mem_ctrl.dram.bytesInstRead::cpu.inst       101376                       # Number of instructions bytes read from this memory (Byte)
system.mem_ctrl.dram.bytesInstRead::total       101376                       # Number of instructions bytes read from this memory (Byte)
system.mem_ctrl.dram.numReads::cpu.inst          1584                       # Number of read requests responded to by this memory (Count)
system.mem_ctrl.dram.numReads::cpu.data          3362                       # Number of read requests responded to by this memory (Count)
system.mem_ctrl.dram.numReads::total             4946                       # Number of read requests responded to by this memory (Count)
system.mem_ctrl.dram.bwRead::cpu.inst       132472883                       # Total read bandwidth from this memory ((Byte/Second))
system.mem_ctrl.dram.bwRead::cpu.data       281170350                       # Total read bandwidth from this memory ((Byte/Second))
system.mem_ctrl.dram.bwRead::total          413643233                       # Total read bandwidth from this memory ((Byte/Second))
system.mem_ctrl.dram.bwInstRead::cpu.inst    132472883                       # Instruction read bandwidth from this memory ((Byte/Second))
system.mem_ctrl.dram.bwInstRead::total      132472883                       # Instruction read bandwidth from this memory ((Byte/Second))
system.mem_ctrl.dram.bwTotal::cpu.inst      132472883                       # Total bandwidth to/from this memory ((Byte/Second))
system.mem_ctrl.dram.bwTotal::cpu.data      281170350                       # Total bandwidth to/from this memory ((Byte/Second))
system.mem_ctrl.dram.bwTotal::total         413643233                       # Total bandwidth to/from this memory ((Byte/Second))
system.mem_ctrl.dram.readBursts                  4946                       # Number of DRAM read bursts (Count)
system.mem_ctrl.dram.writeBursts                    0                       # Number of DRAM write bursts (Count)
system.mem_ctrl.dram.perBankRdBursts::0           456                       # Per bank write bursts (Count)
system.mem_ctrl.dram.perBankRdBursts::1           442                       # Per bank write bursts (Count)
system.mem_ctrl.dram.perBankRdBursts::2           425                       # Per bank write bursts (Count)
system.mem_ctrl.dram.perBankRdBursts::3           436                       # Per bank write bursts (Count)
system.mem_ctrl.dram.perBankRdBursts::4           311                       # Per bank write bursts (Count)
system.mem_ctrl.dram.perBankRdBursts::5           169                       # Per bank write bursts (Count)
system.mem_ctrl.dram.perBankRdBursts::6           182                       # Per bank write bursts (Count)
system.mem_ctrl.dram.perBankRdBursts::7           260                       # Per bank write bursts (Count)
system.mem_ctrl.dram.perBankRdBursts::8           156                       # Per bank write bursts (Count)
system.mem_ctrl.dram.perBankRdBursts::9           216                       # Per bank write bursts (Count)
system.mem_ctrl.dram.perBankRdBursts::10          244                       # Per bank write bursts (Count)
system.mem_ctrl.dram.perBankRdBursts::11          284                       # Per bank write bursts (Count)
system.mem_ctrl.dram.perBankRdBursts::12          277                       # Per bank write bursts (Count)
system.mem_ctrl.dram.perBankRdBursts::13          290                       # Per bank write bursts (Count)
system.mem_ctrl.dram.perBankRdBursts::14          389                       # Per bank write bursts (Count)
system.mem_ctrl.dram.perBankRdBursts::15          409                       # Per bank write bursts (Count)
system.mem_ctrl.dram.perBankWrBursts::0             0                       # Per bank write bursts (Count)
system.mem_ctrl.dram.perBankWrBursts::1             0                       # Per bank write bursts (Count)
system.mem_ctrl.dram.perBankWrBursts::2             0                       # Per bank write bursts (Count)
system.mem_ctrl.dram.perBankWrBursts::3             0                       # Per bank write bursts (Count)
system.mem_ctrl.dram.perBankWrBursts::4             0                       # Per bank write bursts (Count)
system.mem_ctrl.dram.perBankWrBursts::5             0                       # Per bank write bursts (Count)
system.mem_ctrl.dram.perBankWrBursts::6             0                       # Per bank write bursts (Count)
system.mem_ctrl.dram.perBankWrBursts::7             0                       # Per bank write bursts (Count)
system.mem_ctrl.dram.perBankWrBursts::8             0                       # Per bank write bursts (Count)
system.mem_ctrl.dram.perBankWrBursts::9             0                       # Per bank write bursts (Count)
system.mem_ctrl.dram.perBankWrBursts::10            0                       # Per bank write bursts (Count)
system.mem_ctrl.dram.perBankWrBursts::11            0                       # Per bank write bursts (Count)
system.mem_ctrl.dram.perBankWrBursts::12            0                       # Per bank write bursts (Count)
system.mem_ctrl.dram.perBankWrBursts::13            0                       # Per bank write bursts (Count)
system.mem_ctrl.dram.perBankWrBursts::14            0                       # Per bank write bursts (Count)
system.mem_ctrl.dram.perBankWrBursts::15            0                       # Per bank write bursts (Count)
system.mem_ctrl.dram.totQLat                 35322000                       # Total ticks spent queuing (Tick)
system.mem_ctrl.dram.totBusLat               24730000                       # Total ticks spent in databus transfers (Tick)
system.mem_ctrl.dram.totMemAccLat           128059500                       # Total ticks spent from burst creation until serviced by the DRAM (Tick)
system.mem_ctrl.dram.avgQLat                  7141.53                       # Average queueing delay per DRAM burst ((Tick/Count))
system.mem_ctrl.dram.avgBusLat                5000.00                       # Average bus latency per DRAM burst ((Tick/Count))
system.mem_ctrl.dram.avgMemAccLat            25891.53                       # Average memory access latency per DRAM burst ((Tick/Count))
system.mem_ctrl.dram.readRowHits                 4149                       # Number of row buffer hits during reads (Count)
system.mem_ctrl.dram.writeRowHits                   0                       # Number of row buffer hits during writes (Count)
system.mem_ctrl.dram.readRowHitRate             83.89                       # Row buffer hit rate for reads (Ratio)
system.mem_ctrl.dram.writeRowHitRate              nan                       # Row buffer hit rate for writes (Ratio)
system.mem_ctrl.dram.bytesPerActivate::samples          792                       # Bytes accessed per row activation (Byte)
system.mem_ctrl.dram.bytesPerActivate::mean   397.575758                       # Bytes accessed per row activation (Byte)
system.mem_ctrl.dram.bytesPerActivate::gmean   239.274985                       # Bytes accessed per row activation (Byte)
system.mem_ctrl.dram.bytesPerActivate::stdev   369.460004                       # Bytes accessed per row activation (Byte)
system.mem_ctrl.dram.bytesPerActivate::0-127          212     26.77%     26.77% # Bytes accessed per row activation (Byte)
system.mem_ctrl.dram.bytesPerActivate::128-255          201     25.38%     52.15% # Bytes accessed per row activation (Byte)
system.mem_ctrl.dram.bytesPerActivate::256-383           75      9.47%     61.62% # Bytes accessed per row activation (Byte)
system.mem_ctrl.dram.bytesPerActivate::384-511           45      5.68%     67.30% # Bytes accessed per row activation (Byte)
system.mem_ctrl.dram.bytesPerActivate::512-639           41      5.18%     72.47% # Bytes accessed per row activation (Byte)
system.mem_ctrl.dram.bytesPerActivate::640-767           25      3.16%     75.63% # Bytes accessed per row activation (Byte)
system.mem_ctrl.dram.bytesPerActivate::768-895           19      2.40%     78.03% # Bytes accessed per row activation (Byte)
system.mem_ctrl.dram.bytesPerActivate::896-1023           23      2.90%     80.93% # Bytes accessed per row activation (Byte)
system.mem_ctrl.dram.bytesPerActivate::1024-1151          151     19.07%    100.00% # Bytes accessed per row activation (Byte)
system.mem_ctrl.dram.bytesPerActivate::total          792                       # Bytes accessed per row activation (Byte)
system.mem_ctrl.dram.bytesRead                 316544                       # Total bytes read (Byte)
system.mem_ctrl.dram.bytesWritten                   0                       # Total bytes written (Byte)
system.mem_ctrl.dram.avgRdBW               413.643233                       # Average DRAM read bandwidth in MiBytes/s ((Byte/Second))
system.mem_ctrl.dram.avgWrBW                        0                       # Average DRAM write bandwidth in MiBytes/s ((Byte/Second))
system.mem_ctrl.dram.peakBW                  12800.00                       # Theoretical peak bandwidth in MiByte/s ((Byte/Second))
system.mem_ctrl.dram.busUtil                     3.23                       # Data bus utilization in percentage (Ratio)
system.mem_ctrl.dram.busUtilRead                 3.23                       # Data bus utilization in percentage for reads (Ratio)
system.mem_ctrl.dram.busUtilWrite                0.00                       # Data bus utilization in percentage for writes (Ratio)
system.mem_ctrl.dram.pageHitRate                83.89                       # Row buffer hit rate, read and write combined (Ratio)
system.mem_ctrl.dram.power_state.pwrStateResidencyTicks::UNDEFINED    765258500                       # Cumulative time (in ticks) in various power states (Tick)
system.mem_ctrl.dram.rank0.actEnergy          3120180                       # Energy for activate commands per rank (pJ) (Joule)
system.mem_ctrl.dram.rank0.preEnergy          1650825                       # Energy for precharge commands per rank (pJ) (Joule)
system.mem_ctrl.dram.rank0.readEnergy        19142340                       # Energy for read commands per rank (pJ) (Joule)
system.mem_ctrl.dram.rank0.writeEnergy              0                       # Energy for write commands per rank (pJ) (Joule)
system.mem_ctrl.dram.rank0.refreshEnergy 60234720.000000                       # Energy for refresh commands per rank (pJ) (Joule)
system.mem_ctrl.dram.rank0.actBackEnergy    205685070                       # Energy for active background per rank (pJ) (Joule)
system.mem_ctrl.dram.rank0.preBackEnergy    120650880                       # Energy for precharge background per rank (pJ) (Joule)
system.mem_ctrl.dram.rank0.actPowerDownEnergy            0                       # Energy for active power-down per rank (pJ) (Joule)
system.mem_ctrl.dram.rank0.prePowerDownEnergy            0                       # Energy for precharge power-down per rank (pJ) (Joule)
system.mem_ctrl.dram.rank0.selfRefreshEnergy            0                       # Energy for self refresh per rank (pJ) (Joule)
system.mem_ctrl.dram.rank0.totalEnergy      410484015                       # Total energy per rank (pJ) (Joule)
system.mem_ctrl.dram.rank0.averagePower    536.399158                       # Core power per rank (mW) (Watt)
system.mem_ctrl.dram.rank0.totalIdleTime            0                       # Total Idle time Per DRAM Rank (Tick)
system.mem_ctrl.dram.rank0.pwrStateTime::IDLE    311482750                       # Time in different power states (Tick)
system.mem_ctrl.dram.rank0.pwrStateTime::REF     25480000                       # Time in different power states (Tick)
system.mem_ctrl.dram.rank0.pwrStateTime::SREF            0                       # Time in different power states (Tick)
system.mem_ctrl.dram.rank0.pwrStateTime::PRE_PDN            0                       # Time in different power states (Tick)
system.mem_ctrl.dram.rank0.pwrStateTime::ACT    428295750                       # Time in different power states (Tick)
system.mem_ctrl.dram.rank0.pwrStateTime::ACT_PDN            0                       # Time in different power states (Tick)
system.mem_ctrl.dram.rank1.actEnergy          2570400                       # Energy for activate commands per rank (pJ) (Joule)
system.mem_ctrl.dram.rank1.preEnergy          1354815                       # Energy for precharge commands per rank (pJ) (Joule)
system.mem_ctrl.dram.rank1.readEnergy        16172100                       # Energy for read commands per rank (pJ) (Joule)
system.mem_ctrl.dram.rank1.writeEnergy              0                       # Energy for write commands per rank (pJ) (Joule)
system.mem_ctrl.dram.rank1.refreshEnergy 60234720.000000                       # Energy for refresh commands per rank (pJ) (Joule)
system.mem_ctrl.dram.rank1.actBackEnergy    161796210                       # Energy for active background per rank (pJ) (Joule)
system.mem_ctrl.dram.rank1.preBackEnergy    157609920                       # Energy for precharge background per rank (pJ) (Joule)
system.mem_ctrl.dram.rank1.actPowerDownEnergy            0                       # Energy for active power-down per rank (pJ) (Joule)
system.mem_ctrl.dram.rank1.prePowerDownEnergy            0                       # Energy for precharge power-down per rank (pJ) (Joule)
system.mem_ctrl.dram.rank1.selfRefreshEnergy            0                       # Energy for self refresh per rank (pJ) (Joule)
system.mem_ctrl.dram.rank1.totalEnergy      399738165                       # Total energy per rank (pJ) (Joule)
system.mem_ctrl.dram.rank1.averagePower    522.357040                       # Core power per rank (mW) (Watt)
system.mem_ctrl.dram.rank1.totalIdleTime            0                       # Total Idle time Per DRAM Rank (Tick)
system.mem_ctrl.dram.rank1.pwrStateTime::IDLE    408037000                       # Time in different power states (Tick)
system.mem_ctrl.dram.rank1.pwrStateTime::REF     25480000                       # Time in different power states (Tick)
system.mem_ctrl.dram.rank1.pwrStateTime::SREF            0                       # Time in different power states (Tick)
system.mem_ctrl.dram.rank1.pwrStateTime::PRE_PDN            0                       # Time in different power states (Tick)
system.mem_ctrl.dram.rank1.pwrStateTime::ACT    331741500                       # Time in different power states (Tick)
system.mem_ctrl.dram.rank1.pwrStateTime::ACT_PDN            0                       # Time in different power states (Tick)
system.mem_ctrl.power_state.pwrStateResidencyTicks::UNDEFINED    765258500                       # Cumulative time (in ticks) in various power states (Tick)
system.membus.transDist::ReadResp                3015                       # Transaction distribution (Count)
system.membus.transDist::CleanEvict                22                       # Transaction distribution (Count)
system.membus.transDist::ReadExReq               1931                       # Transaction distribution (Count)
system.membus.transDist::ReadExResp              1931                       # Transaction distribution (Count)
system.membus.transDist::ReadSharedReq           3015                       # Transaction distribution (Count)
system.membus.pktCount_system.cpu.l2cache.mem_side_port::system.mem_ctrl.port         9914                       # Packet count per connected requestor and responder (Count)
system.membus.pktCount_system.cpu.l2cache.mem_side_port::total         9914                       # Packet count per connected requestor and responder (Count)
system.membus.pktCount::total                    9914                       # Packet count per connected requestor and responder (Count)
system.membus.pktSize_system.cpu.l2cache.mem_side_port::system.mem_ctrl.port       316544                       # Cumulative packet size per connected requestor and responder (Byte)
system.membus.pktSize_system.cpu.l2cache.mem_side_port::total       316544                       # Cumulative packet size per connected requestor and responder (Byte)
system.membus.pktSize::total                   316544                       # Cumulative packet size per connected requestor and responder (Byte)
system.membus.snoops                                0                       # Total snoops (Count)
system.membus.snoopTraffic                          0                       # Total snoop traffic (Byte)
system.membus.snoopFanout::samples               4946                       # Request fanout histogram (Count)
system.membus.snoopFanout::mean                     0                       # Request fanout histogram (Count)
system.membus.snoopFanout::stdev                    0                       # Request fanout histogram (Count)
system.membus.snoopFanout::underflows               0      0.00%      0.00% # Request fanout histogram (Count)
system.membus.snoopFanout::0                     4946    100.00%    100.00% # Request fanout histogram (Count)
system.membus.snoopFanout::1                        0      0.00%    100.00% # Request fanout histogram (Count)
system.membus.snoopFanout::overflows                0      0.00%    100.00% # Request fanout histogram (Count)
system.membus.snoopFanout::min_value                0                       # Request fanout histogram (Count)
system.membus.snoopFanout::max_value                0                       # Request fanout histogram (Count)
system.membus.snoopFanout::total                 4946                       # Request fanout histogram (Count)
system.membus.power_state.pwrStateResidencyTicks::UNDEFINED    765258500                       # Cumulative time (in ticks) in various power states (Tick)
system.membus.reqLayer2.occupancy             2484000                       # Layer occupancy (ticks) (Tick)
system.membus.reqLayer2.utilization               0.0                       # Layer utilization (Ratio)
system.membus.respLayer0.occupancy           13459000                       # Layer occupancy (ticks) (Tick)
system.membus.respLayer0.utilization              0.0                       # Layer utilization (Ratio)
system.membus.snoop_filter.totRequests           4968                       # Total number of requests made to the snoop filter. (Count)
system.membus.snoop_filter.hitSingleRequests           22                       # Number of requests hitting in the snoop filter with a single holder of the requested data. (Count)
system.membus.snoop_filter.hitMultiRequests            0                       # Number of requests hitting in the snoop filter with multiple (>1) holders of the requested data. (Count)
system.membus.snoop_filter.totSnoops                0                       # Total number of snoops made to the snoop filter. (Count)
system.membus.snoop_filter.hitSingleSnoops            0                       # Number of snoops hitting in the snoop filter with a single holder of the requested data. (Count)
system.membus.snoop_filter.hitMultiSnoops            0                       # Number of snoops hitting in the snoop filter with multiple (>1) holders of the requested data. (Count)
system.workload.inst.arm                            0                       # number of arm instructions executed (Count)
system.workload.inst.quiesce                        0                       # number of quiesce instructions executed (Count)

---------- End Simulation Statistics   ----------
