
---------- Begin Simulation Statistics ----------
simSeconds                                   0.000764                       # Number of seconds simulated (Second)
simTicks                                    764320000                       # Number of ticks simulated (Tick)
finalTick                                   764320000                       # Number of ticks from beginning of simulation (restored from checkpoints and never reset) (Tick)
simFreq                                  1000000000000                       # The number of ticks per simulated second ((Tick/Second))
hostSeconds                                      8.25                       # Real time elapsed on the host (Second)
hostTickRate                                 92615407                       # The number of ticks simulated per host second (ticks/s) ((Tick/Second))
hostMemory                                    1230932                       # Number of bytes of host memory used (Byte)
simInsts                                      1534984                       # Number of instructions simulated (Count)
simOps                                        2677510                       # Number of ops (including micro ops) simulated (Count)
hostInstRate                                   185997                       # Simulator instruction rate (inst/s) ((Count/Second))
hostOpRate                                     324439                       # Simulator op (including micro ops) rate (op/s) ((Count/Second))
system.clk_domain.clock                           500                       # Clock period in ticks (Tick)
system.clk_domain.voltage_domain.voltage            1                       # Voltage in Volts (Volt)
system.cpu.numCycles                          1528641                       # Number of cpu cycles simulated (Cycle)
system.cpu.numWorkItemsStarted                      0                       # Number of work items this cpu started (Count)
system.cpu.numWorkItemsCompleted                    0                       # Number of work items this cpu completed (Count)
system.cpu.instsAdded                         3009310                       # Number of instructions added to the IQ (excludes non-spec) (Count)
system.cpu.nonSpecInstsAdded                     7559                       # Number of non-speculative instructions added to the IQ (Count)
system.cpu.instsIssued                        2900898                       # Number of instructions issued (Count)
system.cpu.squashedInstsIssued                   1951                       # Number of squashed instructions issued (Count)
system.cpu.squashedInstsExamined               339353                       # Number of squashed instructions iterated over during squash; mainly for profiling (Count)
system.cpu.squashedOperandsExamined            676699                       # Number of squashed operands that are examined and possibly removed from graph (Count)
system.cpu.squashedNonSpecRemoved                  65                       # Number of squashed non-spec instructions that were removed (Count)
system.cpu.numIssuedDist::samples             1415409                       # Number of insts issued each cycle (Count)
system.cpu.numIssuedDist::mean               2.049512                       # Number of insts issued each cycle (Count)
system.cpu.numIssuedDist::stdev              2.248782                       # Number of insts issued each cycle (Count)
system.cpu.numIssuedDist::underflows                0      0.00%      0.00% # Number of insts issued each cycle (Count)
system.cpu.numIssuedDist::0                    551590     38.97%     38.97% # Number of insts issued each cycle (Count)
system.cpu.numIssuedDist::1                    189403     13.38%     52.35% # Number of insts issued each cycle (Count)
system.cpu.numIssuedDist::2                    153439     10.84%     63.19% # Number of insts issued each cycle (Count)
system.cpu.numIssuedDist::3                    172392     12.18%     75.37% # Number of insts issued each cycle (Count)
system.cpu.numIssuedDist::4                    101640      7.18%     82.55% # Number of insts issued each cycle (Count)
system.cpu.numIssuedDist::5                     99529      7.03%     89.58% # Number of insts issued each cycle (Count)
system.cpu.numIssuedDist::6                     70390      4.97%     94.56% # Number of insts issued each cycle (Count)
system.cpu.numIssuedDist::7                     55312      3.91%     98.47% # Number of insts issued each cycle (Count)
system.cpu.numIssuedDist::8                     21714      1.53%    100.00% # Number of insts issued each cycle (Count)
system.cpu.numIssuedDist::overflows                 0      0.00%    100.00% # Number of insts issued each cycle (Count)
system.cpu.numIssuedDist::min_value                 0                       # Number of insts issued each cycle (Count)
system.cpu.numIssuedDist::max_value                 8                       # Number of insts issued each cycle (Count)
system.cpu.numIssuedDist::total               1415409                       # Number of insts issued each cycle (Count)
system.cpu.statFuBusy::No_OpClass                   0      0.00%      0.00% # attempts to use FU when none available (Count)
system.cpu.statFuBusy::IntAlu                   37720     64.43%     64.43% # attempts to use FU when none available (Count)
system.cpu.statFuBusy::IntMult                      0      0.00%     64.43% # attempts to use FU when none available (Count)
system.cpu.statFuBusy::IntDiv                       0      0.00%     64.43% # attempts to use FU when none available (Count)
system.cpu.statFuBusy::FloatAdd                     0      0.00%     64.43% # attempts to use FU when none available (Count)
system.cpu.statFuBusy::FloatCmp                     0      0.00%     64.43% # attempts to use FU when none available (Count)
system.cpu.statFuBusy::FloatCvt                     0      0.00%     64.43% # attempts to use FU when none available (Count)
system.cpu.statFuBusy::FloatMult                    0      0.00%     64.43% # attempts to use FU when none available (Count)
system.cpu.statFuBusy::FloatMultAcc                 0      0.00%     64.43% # attempts to use FU when none available (Count)
system.cpu.statFuBusy::FloatDiv                     0      0.00%     64.43% # attempts to use FU when none available (Count)
system.cpu.statFuBusy::FloatMisc                    0      0.00%     64.43% # attempts to use FU when none available (Count)
system.cpu.statFuBusy::FloatSqrt                    0      0.00%     64.43% # attempts to use FU when none available (Count)
system.cpu.statFuBusy::SimdAdd                      0      0.00%     64.43% # attempts to use FU when none available (Count)
system.cpu.statFuBusy::SimdAddAcc                   0      0.00%     64.43% # attempts to use FU when none available (Count)
system.cpu.statFuBusy::SimdAlu                     24      0.04%     64.47% # attempts to use FU when none available (Count)
system.cpu.statFuBusy::SimdCmp                      0      0.00%     64.47% # attempts to use FU when none available (Count)
system.cpu.statFuBusy::SimdCvt                     57      0.10%     64.57% # attempts to use FU when none available (Count)
system.cpu.statFuBusy::SimdMisc                     3      0.01%     64.58% # attempts to use FU when none available (Count)
system.cpu.statFuBusy::SimdMult                     0      0.00%     64.58% # attempts to use FU when none available (Count)
system.cpu.statFuBusy::SimdMultAcc                  0      0.00%     64.58% # attempts to use FU when none available (Count)
system.cpu.statFuBusy::SimdShift                    5      0.01%     64.58% # attempts to use FU when none available (Count)
system.cpu.statFuBusy::SimdShiftAcc                 0      0.00%     64.58% # attempts to use FU when none available (Count)
system.cpu.statFuBusy::SimdDiv                      0      0.00%     64.58% # attempts to use FU when none available (Count)
system.cpu.statFuBusy::SimdSqrt                     0      0.00%     64.58% # attempts to use FU when none available (Count)
system.cpu.statFuBusy::SimdFloatAdd                 0      0.00%     64.58% # attempts to use FU when none available (Count)
system.cpu.statFuBusy::SimdFloatAlu                 0      0.00%     64.58% # attempts to use FU when none available (Count)
system.cpu.statFuBusy::SimdFloatCmp                 0      0.00%     64.58% # attempts to use FU when none available (Count)
system.cpu.statFuBusy::SimdFloatCvt                 0      0.00%     64.58% # attempts to use FU when none available (Count)
system.cpu.statFuBusy::SimdFloatDiv                 0      0.00%     64.58% # attempts to use FU when none available (Count)
system.cpu.statFuBusy::SimdFloatMisc                0      0.00%     64.58% # attempts to use FU when none available (Count)
system.cpu.statFuBusy::SimdFloatMult                0      0.00%     64.58% # attempts to use FU when none available (Count)
system.cpu.statFuBusy::SimdFloatMultAcc             0      0.00%     64.58% # attempts to use FU when none available (Count)
system.cpu.statFuBusy::SimdFloatSqrt                0      0.00%     64.58% # attempts to use FU when none available (Count)
system.cpu.statFuBusy::SimdReduceAdd                0      0.00%     64.58% # attempts to use FU when none available (Count)
system.cpu.statFuBusy::SimdReduceAlu                0      0.00%     64.58% # attempts to use FU when none available (Count)
system.cpu.statFuBusy::SimdReduceCmp                0      0.00%     64.58% # attempts to use FU when none available (Count)
system.cpu.statFuBusy::SimdFloatReduceAdd            0      0.00%     64.58% # attempts to use FU when none available (Count)
system.cpu.statFuBusy::SimdFloatReduceCmp            0      0.00%     64.58% # attempts to use FU when none available (Count)
system.cpu.statFuBusy::SimdAes                      0      0.00%     64.58% # attempts to use FU when none available (Count)
system.cpu.statFuBusy::SimdAesMix                   0      0.00%     64.58% # attempts to use FU when none available (Count)
system.cpu.statFuBusy::SimdSha1Hash                 0      0.00%     64.58% # attempts to use FU when none available (Count)
system.cpu.statFuBusy::SimdSha1Hash2                0      0.00%     64.58% # attempts to use FU when none available (Count)
system.cpu.statFuBusy::SimdSha256Hash               0      0.00%     64.58% # attempts to use FU when none available (Count)
system.cpu.statFuBusy::SimdSha256Hash2              0      0.00%     64.58% # attempts to use FU when none available (Count)
system.cpu.statFuBusy::SimdShaSigma2                0      0.00%     64.58% # attempts to use FU when none available (Count)
system.cpu.statFuBusy::SimdShaSigma3                0      0.00%     64.58% # attempts to use FU when none available (Count)
system.cpu.statFuBusy::SimdPredAlu                  0      0.00%     64.58% # attempts to use FU when none available (Count)
system.cpu.statFuBusy::MemRead                  17236     29.44%     94.03% # attempts to use FU when none available (Count)
system.cpu.statFuBusy::MemWrite                  3337      5.70%     99.73% # attempts to use FU when none available (Count)
system.cpu.statFuBusy::FloatMemRead                71      0.12%     99.85% # attempts to use FU when none available (Count)
system.cpu.statFuBusy::FloatMemWrite               89      0.15%    100.00% # attempts to use FU when none available (Count)
system.cpu.statFuBusy::IprAccess                    0      0.00%    100.00% # attempts to use FU when none available (Count)
system.cpu.statFuBusy::InstPrefetch                 0      0.00%    100.00% # attempts to use FU when none available (Count)
system.cpu.statIssuedInstType_0::No_OpClass        32112      1.11%      1.11% # Number of instructions issued per FU type, per thread (Count)
system.cpu.statIssuedInstType_0::IntAlu       2000801     68.97%     70.08% # Number of instructions issued per FU type, per thread (Count)
system.cpu.statIssuedInstType_0::IntMult        38824      1.34%     71.42% # Number of instructions issued per FU type, per thread (Count)
system.cpu.statIssuedInstType_0::IntDiv          1849      0.06%     71.48% # Number of instructions issued per FU type, per thread (Count)
system.cpu.statIssuedInstType_0::FloatAdd         3483      0.12%     71.60% # Number of instructions issued per FU type, per thread (Count)
system.cpu.statIssuedInstType_0::FloatCmp            0      0.00%     71.60% # Number of instructions issued per FU type, per thread (Count)
system.cpu.statIssuedInstType_0::FloatCvt           32      0.00%     71.60% # Number of instructions issued per FU type, per thread (Count)
system.cpu.statIssuedInstType_0::FloatMult            0      0.00%     71.60% # Number of instructions issued per FU type, per thread (Count)
system.cpu.statIssuedInstType_0::FloatMultAcc            0      0.00%     71.60% # Number of instructions issued per FU type, per thread (Count)
system.cpu.statIssuedInstType_0::FloatDiv            0      0.00%     71.60% # Number of instructions issued per FU type, per thread (Count)
system.cpu.statIssuedInstType_0::FloatMisc            0      0.00%     71.60% # Number of instructions issued per FU type, per thread (Count)
system.cpu.statIssuedInstType_0::FloatSqrt            0      0.00%     71.60% # Number of instructions issued per FU type, per thread (Count)
system.cpu.statIssuedInstType_0::SimdAdd          868      0.03%     71.63% # Number of instructions issued per FU type, per thread (Count)
system.cpu.statIssuedInstType_0::SimdAddAcc            0      0.00%     71.63% # Number of instructions issued per FU type, per thread (Count)
system.cpu.statIssuedInstType_0::SimdAlu        12881      0.44%     72.08% # Number of instructions issued per FU type, per thread (Count)
system.cpu.statIssuedInstType_0::SimdCmp            0      0.00%     72.08% # Number of instructions issued per FU type, per thread (Count)
system.cpu.statIssuedInstType_0::SimdCvt        12204      0.42%     72.50% # Number of instructions issued per FU type, per thread (Count)
system.cpu.statIssuedInstType_0::SimdMisc        24395      0.84%     73.34% # Number of instructions issued per FU type, per thread (Count)
system.cpu.statIssuedInstType_0::SimdMult            0      0.00%     73.34% # Number of instructions issued per FU type, per thread (Count)
system.cpu.statIssuedInstType_0::SimdMultAcc            0      0.00%     73.34% # Number of instructions issued per FU type, per thread (Count)
system.cpu.statIssuedInstType_0::SimdShift          708      0.02%     73.36% # Number of instructions issued per FU type, per thread (Count)
system.cpu.statIssuedInstType_0::SimdShiftAcc            0      0.00%     73.36% # Number of instructions issued per FU type, per thread (Count)
system.cpu.statIssuedInstType_0::SimdDiv            0      0.00%     73.36% # Number of instructions issued per FU type, per thread (Count)
system.cpu.statIssuedInstType_0::SimdSqrt            0      0.00%     73.36% # Number of instructions issued per FU type, per thread (Count)
system.cpu.statIssuedInstType_0::SimdFloatAdd            0      0.00%     73.36% # Number of instructions issued per FU type, per thread (Count)
system.cpu.statIssuedInstType_0::SimdFloatAlu            0      0.00%     73.36% # Number of instructions issued per FU type, per thread (Count)
system.cpu.statIssuedInstType_0::SimdFloatCmp            0      0.00%     73.36% # Number of instructions issued per FU type, per thread (Count)
system.cpu.statIssuedInstType_0::SimdFloatCvt          441      0.02%     73.38% # Number of instructions issued per FU type, per thread (Count)
system.cpu.statIssuedInstType_0::SimdFloatDiv            1      0.00%     73.38% # Number of instructions issued per FU type, per thread (Count)
system.cpu.statIssuedInstType_0::SimdFloatMisc            0      0.00%     73.38% # Number of instructions issued per FU type, per thread (Count)
system.cpu.statIssuedInstType_0::SimdFloatMult            0      0.00%     73.38% # Number of instructions issued per FU type, per thread (Count)
system.cpu.statIssuedInstType_0::SimdFloatMultAcc            0      0.00%     73.38% # Number of instructions issued per FU type, per thread (Count)
system.cpu.statIssuedInstType_0::SimdFloatSqrt          111      0.00%     73.38% # Number of instructions issued per FU type, per thread (Count)
system.cpu.statIssuedInstType_0::SimdReduceAdd            0      0.00%     73.38% # Number of instructions issued per FU type, per thread (Count)
system.cpu.statIssuedInstType_0::SimdReduceAlu            0      0.00%     73.38% # Number of instructions issued per FU type, per thread (Count)
system.cpu.statIssuedInstType_0::SimdReduceCmp            0      0.00%     73.38% # Number of instructions issued per FU type, per thread (Count)
system.cpu.statIssuedInstType_0::SimdFloatReduceAdd            0      0.00%     73.38% # Number of instructions issued per FU type, per thread (Count)
system.cpu.statIssuedInstType_0::SimdFloatReduceCmp            0      0.00%     73.38% # Number of instructions issued per FU type, per thread (Count)
system.cpu.statIssuedInstType_0::SimdAes            0      0.00%     73.38% # Number of instructions issued per FU type, per thread (Count)
system.cpu.statIssuedInstType_0::SimdAesMix            0      0.00%     73.38% # Number of instructions issued per FU type, per thread (Count)
system.cpu.statIssuedInstType_0::SimdSha1Hash            0      0.00%     73.38% # Number of instructions issued per FU type, per thread (Count)
system.cpu.statIssuedInstType_0::SimdSha1Hash2            0      0.00%     73.38% # Number of instructions issued per FU type, per thread (Count)
system.cpu.statIssuedInstType_0::SimdSha256Hash            0      0.00%     73.38% # Number of instructions issued per FU type, per thread (Count)
system.cpu.statIssuedInstType_0::SimdSha256Hash2            0      0.00%     73.38% # Number of instructions issued per FU type, per thread (Count)
system.cpu.statIssuedInstType_0::SimdShaSigma2            0      0.00%     73.38% # Number of instructions issued per FU type, per thread (Count)
system.cpu.statIssuedInstType_0::SimdShaSigma3            0      0.00%     73.38% # Number of instructions issued per FU type, per thread (Count)
system.cpu.statIssuedInstType_0::SimdPredAlu            0      0.00%     73.38% # Number of instructions issued per FU type, per thread (Count)
system.cpu.statIssuedInstType_0::MemRead       513376     17.70%     91.08% # Number of instructions issued per FU type, per thread (Count)
system.cpu.statIssuedInstType_0::MemWrite       239379      8.25%     99.33% # Number of instructions issued per FU type, per thread (Count)
system.cpu.statIssuedInstType_0::FloatMemRead        12772      0.44%     99.77% # Number of instructions issued per FU type, per thread (Count)
system.cpu.statIssuedInstType_0::FloatMemWrite         6661      0.23%    100.00% # Number of instructions issued per FU type, per thread (Count)
system.cpu.statIssuedInstType_0::IprAccess            0      0.00%    100.00% # Number of instructions issued per FU type, per thread (Count)
system.cpu.statIssuedInstType_0::InstPrefetch            0      0.00%    100.00% # Number of instructions issued per FU type, per thread (Count)
system.cpu.statIssuedInstType_0::total        2900898                       # Number of instructions issued per FU type, per thread (Count)
system.cpu.issueRate                         1.897697                       # Inst issue rate ((Count/Cycle))
system.cpu.fuBusy                               58542                       # FU busy when requested (Count)
system.cpu.fuBusyRate                        0.020181                       # FU busy rate (busy events/executed inst) ((Count/Count))
system.cpu.intInstQueueReads                  7112458                       # Number of integer instruction queue reads (Count)
system.cpu.intInstQueueWrites                 3264422                       # Number of integer instruction queue writes (Count)
system.cpu.intInstQueueWakeupAccesses         2793918                       # Number of integer instruction queue wakeup accesses (Count)
system.cpu.fpInstQueueReads                    165240                       # Number of floating instruction queue reads (Count)
system.cpu.fpInstQueueWrites                    96837                       # Number of floating instruction queue writes (Count)
system.cpu.fpInstQueueWakeupAccesses            79905                       # Number of floating instruction queue wakeup accesses (Count)
system.cpu.vecInstQueueReads                        0                       # Number of vector instruction queue reads (Count)
system.cpu.vecInstQueueWrites                       0                       # Number of vector instruction queue writes (Count)
system.cpu.vecInstQueueWakeupAccesses               0                       # Number of vector instruction queue wakeup accesses (Count)
system.cpu.intAluAccesses                     2844618                       # Number of integer alu accesses (Count)
system.cpu.fpAluAccesses                        82710                       # Number of floating point alu accesses (Count)
system.cpu.vecAluAccesses                           0                       # Number of vector alu accesses (Count)
system.cpu.numInsts                           2886650                       # Number of executed instructions (Count)
system.cpu.numLoadInsts                        521901                       # Number of load instructions executed (Count)
system.cpu.numSquashedInsts                     14248                       # Number of squashed instructions skipped in execute (Count)
system.cpu.numSwp                                   0                       # Number of swp insts executed (Count)
system.cpu.numNop                                   0                       # Number of nop insts executed (Count)
system.cpu.numRefs                             766024                       # Number of memory reference insts executed (Count)
system.cpu.numBranches                         238340                       # Number of branches executed (Count)
system.cpu.numStoreInsts                       244123                       # Number of stores executed (Count)
system.cpu.numRate                           1.888377                       # Inst execution rate ((Count/Cycle))
system.cpu.timesIdled                            1190                       # Number of times that the entire CPU went into an idle state and unscheduled itself (Count)
system.cpu.idleCycles                          113232                       # Total number of cycles that the CPU has spent unscheduled due to idling (Cycle)
system.cpu.committedInsts                     1534984                       # Number of Instructions Simulated (Count)
system.cpu.committedOps                       2677510                       # Number of Ops (including micro ops) Simulated (Count)
system.cpu.cpi                               0.995868                       # CPI: Cycles Per Instruction ((Cycle/Count))
system.cpu.totalCpi                          0.995868                       # CPI: Total CPI of All Threads ((Cycle/Count))
system.cpu.ipc                               1.004149                       # IPC: Instructions Per Cycle ((Count/Cycle))
system.cpu.totalIpc                          1.004149                       # IPC: Total IPC of All Threads ((Count/Cycle))
system.cpu.intRegfileReads                    3726610                       # Number of integer regfile reads (Count)
system.cpu.intRegfileWrites                   2127212                       # Number of integer regfile writes (Count)
system.cpu.fpRegfileReads                      134061                       # Number of floating regfile reads (Count)
system.cpu.fpRegfileWrites                      67144                       # Number of floating regfile writes (Count)
system.cpu.ccRegfileReads                     1289532                       # number of cc regfile reads (Count)
system.cpu.ccRegfileWrites                     879791                       # number of cc regfile writes (Count)
system.cpu.miscRegfileReads                   1264606                       # number of misc regfile reads (Count)
system.cpu.miscRegfileWrites                       18                       # number of misc regfile writes (Count)
system.cpu.MemDepUnit__0.insertedLoads         542411                       # Number of loads inserted to the mem dependence unit. (Count)
system.cpu.MemDepUnit__0.insertedStores        252533                       # Number of stores inserted to the mem dependence unit. (Count)
system.cpu.MemDepUnit__0.conflictingLoads       222438                       # Number of conflicting loads. (Count)
system.cpu.MemDepUnit__0.conflictingStores        62802                       # Number of conflicting stores. (Count)
system.cpu.MemDepUnit__1.insertedLoads              0                       # Number of loads inserted to the mem dependence unit. (Count)
system.cpu.MemDepUnit__1.insertedStores             0                       # Number of stores inserted to the mem dependence unit. (Count)
system.cpu.MemDepUnit__1.conflictingLoads            0                       # Number of conflicting loads. (Count)
system.cpu.MemDepUnit__1.conflictingStores            0                       # Number of conflicting stores. (Count)
system.cpu.MemDepUnit__2.insertedLoads              0                       # Number of loads inserted to the mem dependence unit. (Count)
system.cpu.MemDepUnit__2.insertedStores             0                       # Number of stores inserted to the mem dependence unit. (Count)
system.cpu.MemDepUnit__2.conflictingLoads            0                       # Number of conflicting loads. (Count)
system.cpu.MemDepUnit__2.conflictingStores            0                       # Number of conflicting stores. (Count)
system.cpu.MemDepUnit__3.insertedLoads              0                       # Number of loads inserted to the mem dependence unit. (Count)
system.cpu.MemDepUnit__3.insertedStores             0                       # Number of stores inserted to the mem dependence unit. (Count)
system.cpu.MemDepUnit__3.conflictingLoads            0                       # Number of conflicting loads. (Count)
system.cpu.MemDepUnit__3.conflictingStores            0                       # Number of conflicting stores. (Count)
system.cpu.branchPred.lookups                  277950                       # Number of BP lookups (Count)
system.cpu.branchPred.condPredicted            215892                       # Number of conditional branches predicted (Count)
system.cpu.branchPred.condIncorrect              5068                       # Number of conditional branches incorrect (Count)
system.cpu.branchPred.BTBLookups               136145                       # Number of BTB lookups (Count)
system.cpu.branchPred.BTBUpdates                 2889                       # Number of BTB updates (Count)
system.cpu.branchPred.BTBHits                  133749                       # Number of BTB hits (Count)
system.cpu.branchPred.BTBHitRatio            0.982401                       # BTB Hit Ratio (Ratio)
system.cpu.branchPred.RASUsed                   18213                       # Number of times the RAS was used to get a target. (Count)
system.cpu.branchPred.RASIncorrect                  4                       # Number of incorrect RAS predictions. (Count)
system.cpu.branchPred.indirectLookups           15522                       # Number of indirect predictor lookups. (Count)
system.cpu.branchPred.indirectHits              14111                       # Number of indirect target hits. (Count)
system.cpu.branchPred.indirectMisses             1411                       # Number of indirect misses. (Count)
system.cpu.branchPred.indirectMispredicted          440                       # Number of mispredicted indirect branches. (Count)
system.cpu.commit.commitSquashedInsts          337277                       # The number of squashed insts skipped by commit (Count)
system.cpu.commit.commitNonSpecStalls            7494                       # The number of times commit has been forced to stall to communicate backwards (Count)
system.cpu.commit.branchMispredicts              4660                       # The number of times a branch was mispredicted (Count)
system.cpu.commit.numCommittedDist::samples      1366683                       # Number of insts commited each cycle (Count)
system.cpu.commit.numCommittedDist::mean     1.959130                       # Number of insts commited each cycle (Count)
system.cpu.commit.numCommittedDist::stdev     2.786687                       # Number of insts commited each cycle (Count)
system.cpu.commit.numCommittedDist::underflows            0      0.00%      0.00% # Number of insts commited each cycle (Count)
system.cpu.commit.numCommittedDist::0          663735     48.57%     48.57% # Number of insts commited each cycle (Count)
system.cpu.commit.numCommittedDist::1          226930     16.60%     65.17% # Number of insts commited each cycle (Count)
system.cpu.commit.numCommittedDist::2          103837      7.60%     72.77% # Number of insts commited each cycle (Count)
system.cpu.commit.numCommittedDist::3           94059      6.88%     79.65% # Number of insts commited each cycle (Count)
system.cpu.commit.numCommittedDist::4           22667      1.66%     81.31% # Number of insts commited each cycle (Count)
system.cpu.commit.numCommittedDist::5           39849      2.92%     84.22% # Number of insts commited each cycle (Count)
system.cpu.commit.numCommittedDist::6           11360      0.83%     85.06% # Number of insts commited each cycle (Count)
system.cpu.commit.numCommittedDist::7           31312      2.29%     87.35% # Number of insts commited each cycle (Count)
system.cpu.commit.numCommittedDist::8          172934     12.65%    100.00% # Number of insts commited each cycle (Count)
system.cpu.commit.numCommittedDist::overflows            0      0.00%    100.00% # Number of insts commited each cycle (Count)
system.cpu.commit.numCommittedDist::min_value            0                       # Number of insts commited each cycle (Count)
system.cpu.commit.numCommittedDist::max_value            8                       # Number of insts commited each cycle (Count)
system.cpu.commit.numCommittedDist::total      1366683                       # Number of insts commited each cycle (Count)
system.cpu.commit.instsCommitted              1534984                       # Number of instructions committed (Count)
system.cpu.commit.opsCommitted                2677510                       # Number of ops (including micro ops) committed (Count)
system.cpu.commit.memRefs                      706073                       # Number of memory references committed (Count)
system.cpu.commit.loads                        470490                       # Number of loads committed (Count)
system.cpu.commit.amos                              0                       # Number of atomic instructions committed (Count)
system.cpu.commit.membars                        4984                       # Number of memory barriers committed (Count)
system.cpu.commit.branches                     228296                       # Number of branches committed (Count)
system.cpu.commit.vectorInstructions                0                       # Number of committed Vector instructions. (Count)
system.cpu.commit.floating                      74465                       # Number of committed floating point instructions. (Count)
system.cpu.commit.integer                     2589813                       # Number of committed integer instructions. (Count)
system.cpu.commit.functionCalls                 15972                       # Number of function calls committed. (Count)
system.cpu.commit.committedInstType_0::No_OpClass        28990      1.08%      1.08% # Class of committed instruction (Count)
system.cpu.commit.committedInstType_0::IntAlu      1850859     69.13%     70.21% # Class of committed instruction (Count)
system.cpu.commit.committedInstType_0::IntMult        38739      1.45%     71.66% # Class of committed instruction (Count)
system.cpu.commit.committedInstType_0::IntDiv         1657      0.06%     71.72% # Class of committed instruction (Count)
system.cpu.commit.committedInstType_0::FloatAdd         3158      0.12%     71.84% # Class of committed instruction (Count)
system.cpu.commit.committedInstType_0::FloatCmp            0      0.00%     71.84% # Class of committed instruction (Count)
system.cpu.commit.committedInstType_0::FloatCvt           32      0.00%     71.84% # Class of committed instruction (Count)
system.cpu.commit.committedInstType_0::FloatMult            0      0.00%     71.84% # Class of committed instruction (Count)
system.cpu.commit.committedInstType_0::FloatMultAcc            0      0.00%     71.84% # Class of committed instruction (Count)
system.cpu.commit.committedInstType_0::FloatDiv            0      0.00%     71.84% # Class of committed instruction (Count)
system.cpu.commit.committedInstType_0::FloatMisc            0      0.00%     71.84% # Class of committed instruction (Count)
system.cpu.commit.committedInstType_0::FloatSqrt            0      0.00%     71.84% # Class of committed instruction (Count)
system.cpu.commit.committedInstType_0::SimdAdd          526      0.02%     71.86% # Class of committed instruction (Count)
system.cpu.commit.committedInstType_0::SimdAddAcc            0      0.00%     71.86% # Class of committed instruction (Count)
system.cpu.commit.committedInstType_0::SimdAlu        11633      0.43%     72.29% # Class of committed instruction (Count)
system.cpu.commit.committedInstType_0::SimdCmp            0      0.00%     72.29% # Class of committed instruction (Count)
system.cpu.commit.committedInstType_0::SimdCvt        11122      0.42%     72.71% # Class of committed instruction (Count)
system.cpu.commit.committedInstType_0::SimdMisc        23880      0.89%     73.60% # Class of committed instruction (Count)
system.cpu.commit.committedInstType_0::SimdMult            0      0.00%     73.60% # Class of committed instruction (Count)
system.cpu.commit.committedInstType_0::SimdMultAcc            0      0.00%     73.60% # Class of committed instruction (Count)
system.cpu.commit.committedInstType_0::SimdShift          342      0.01%     73.61% # Class of committed instruction (Count)
system.cpu.commit.committedInstType_0::SimdShiftAcc            0      0.00%     73.61% # Class of committed instruction (Count)
system.cpu.commit.committedInstType_0::SimdDiv            0      0.00%     73.61% # Class of committed instruction (Count)
system.cpu.commit.committedInstType_0::SimdSqrt            0      0.00%     73.61% # Class of committed instruction (Count)
system.cpu.commit.committedInstType_0::SimdFloatAdd            0      0.00%     73.61% # Class of committed instruction (Count)
system.cpu.commit.committedInstType_0::SimdFloatAlu            0      0.00%     73.61% # Class of committed instruction (Count)
system.cpu.commit.committedInstType_0::SimdFloatCmp            0      0.00%     73.61% # Class of committed instruction (Count)
system.cpu.commit.committedInstType_0::SimdFloatCvt          399      0.01%     73.63% # Class of committed instruction (Count)
system.cpu.commit.committedInstType_0::SimdFloatDiv            1      0.00%     73.63% # Class of committed instruction (Count)
system.cpu.commit.committedInstType_0::SimdFloatMisc            0      0.00%     73.63% # Class of committed instruction (Count)
system.cpu.commit.committedInstType_0::SimdFloatMult            0      0.00%     73.63% # Class of committed instruction (Count)
system.cpu.commit.committedInstType_0::SimdFloatMultAcc            0      0.00%     73.63% # Class of committed instruction (Count)
system.cpu.commit.committedInstType_0::SimdFloatSqrt           99      0.00%     73.63% # Class of committed instruction (Count)
system.cpu.commit.committedInstType_0::SimdReduceAdd            0      0.00%     73.63% # Class of committed instruction (Count)
system.cpu.commit.committedInstType_0::SimdReduceAlu            0      0.00%     73.63% # Class of committed instruction (Count)
system.cpu.commit.committedInstType_0::SimdReduceCmp            0      0.00%     73.63% # Class of committed instruction (Count)
system.cpu.commit.committedInstType_0::SimdFloatReduceAdd            0      0.00%     73.63% # Class of committed instruction (Count)
system.cpu.commit.committedInstType_0::SimdFloatReduceCmp            0      0.00%     73.63% # Class of committed instruction (Count)
system.cpu.commit.committedInstType_0::SimdAes            0      0.00%     73.63% # Class of committed instruction (Count)
system.cpu.commit.committedInstType_0::SimdAesMix            0      0.00%     73.63% # Class of committed instruction (Count)
system.cpu.commit.committedInstType_0::SimdSha1Hash            0      0.00%     73.63% # Class of committed instruction (Count)
system.cpu.commit.committedInstType_0::SimdSha1Hash2            0      0.00%     73.63% # Class of committed instruction (Count)
system.cpu.commit.committedInstType_0::SimdSha256Hash            0      0.00%     73.63% # Class of committed instruction (Count)
system.cpu.commit.committedInstType_0::SimdSha256Hash2            0      0.00%     73.63% # Class of committed instruction (Count)
system.cpu.commit.committedInstType_0::SimdShaSigma2            0      0.00%     73.63% # Class of committed instruction (Count)
system.cpu.commit.committedInstType_0::SimdShaSigma3            0      0.00%     73.63% # Class of committed instruction (Count)
system.cpu.commit.committedInstType_0::SimdPredAlu            0      0.00%     73.63% # Class of committed instruction (Count)
system.cpu.commit.committedInstType_0::MemRead       461348     17.23%     90.86% # Class of committed instruction (Count)
system.cpu.commit.committedInstType_0::MemWrite       229257      8.56%     99.42% # Class of committed instruction (Count)
system.cpu.commit.committedInstType_0::FloatMemRead         9142      0.34%     99.76% # Class of committed instruction (Count)
system.cpu.commit.committedInstType_0::FloatMemWrite         6326      0.24%    100.00% # Class of committed instruction (Count)
system.cpu.commit.committedInstType_0::IprAccess            0      0.00%    100.00% # Class of committed instruction (Count)
system.cpu.commit.committedInstType_0::InstPrefetch            0      0.00%    100.00% # Class of committed instruction (Count)
system.cpu.commit.committedInstType_0::total      2677510                       # Class of committed instruction (Count)
system.cpu.commit.commitEligibleSamples        172934                       # number cycles where commit BW limit reached (Cycle)
system.cpu.dcache.demandHits::cpu.data         557167                       # number of demand (read+write) hits (Count)
system.cpu.dcache.demandHits::total            557167                       # number of demand (read+write) hits (Count)
system.cpu.dcache.overallHits::cpu.data        557167                       # number of overall hits (Count)
system.cpu.dcache.overallHits::total           557167                       # number of overall hits (Count)
system.cpu.dcache.demandMisses::cpu.data        18750                       # number of demand (read+write) misses (Count)
system.cpu.dcache.demandMisses::total           18750                       # number of demand (read+write) misses (Count)
system.cpu.dcache.overallMisses::cpu.data        18750                       # number of overall misses (Count)
system.cpu.dcache.overallMisses::total          18750                       # number of overall misses (Count)
system.cpu.dcache.demandMissLatency::cpu.data    671876499                       # number of demand (read+write) miss ticks (Tick)
system.cpu.dcache.demandMissLatency::total    671876499                       # number of demand (read+write) miss ticks (Tick)
system.cpu.dcache.overallMissLatency::cpu.data    671876499                       # number of overall miss ticks (Tick)
system.cpu.dcache.overallMissLatency::total    671876499                       # number of overall miss ticks (Tick)
system.cpu.dcache.demandAccesses::cpu.data       575917                       # number of demand (read+write) accesses (Count)
system.cpu.dcache.demandAccesses::total        575917                       # number of demand (read+write) accesses (Count)
system.cpu.dcache.overallAccesses::cpu.data       575917                       # number of overall (read+write) accesses (Count)
system.cpu.dcache.overallAccesses::total       575917                       # number of overall (read+write) accesses (Count)
system.cpu.dcache.demandMissRate::cpu.data     0.032557                       # miss rate for demand accesses (Ratio)
system.cpu.dcache.demandMissRate::total      0.032557                       # miss rate for demand accesses (Ratio)
system.cpu.dcache.overallMissRate::cpu.data     0.032557                       # miss rate for overall accesses (Ratio)
system.cpu.dcache.overallMissRate::total     0.032557                       # miss rate for overall accesses (Ratio)
system.cpu.dcache.demandAvgMissLatency::cpu.data 35833.413280                       # average overall miss latency in ticks ((Tick/Count))
system.cpu.dcache.demandAvgMissLatency::total 35833.413280                       # average overall miss latency in ticks ((Tick/Count))
system.cpu.dcache.overallAvgMissLatency::cpu.data 35833.413280                       # average overall miss latency ((Tick/Count))
system.cpu.dcache.overallAvgMissLatency::total 35833.413280                       # average overall miss latency ((Tick/Count))
system.cpu.dcache.blockedCycles::no_mshrs        19184                       # number of cycles access was blocked (Cycle)
system.cpu.dcache.blockedCycles::no_targets            0                       # number of cycles access was blocked (Cycle)
system.cpu.dcache.blockedCauses::no_mshrs          485                       # number of times access was blocked (Count)
system.cpu.dcache.blockedCauses::no_targets            0                       # number of times access was blocked (Count)
system.cpu.dcache.avgBlocked::no_mshrs      39.554639                       # average number of cycles each access was blocked ((Cycle/Count))
system.cpu.dcache.avgBlocked::no_targets          nan                       # average number of cycles each access was blocked ((Cycle/Count))
system.cpu.dcache.writebacks::writebacks         7970                       # number of writebacks (Count)
system.cpu.dcache.writebacks::total              7970                       # number of writebacks (Count)
system.cpu.dcache.demandMshrHits::cpu.data         8316                       # number of demand (read+write) MSHR hits (Count)
system.cpu.dcache.demandMshrHits::total          8316                       # number of demand (read+write) MSHR hits (Count)
system.cpu.dcache.overallMshrHits::cpu.data         8316                       # number of overall MSHR hits (Count)
system.cpu.dcache.overallMshrHits::total         8316                       # number of overall MSHR hits (Count)
system.cpu.dcache.demandMshrMisses::cpu.data        10434                       # number of demand (read+write) MSHR misses (Count)
system.cpu.dcache.demandMshrMisses::total        10434                       # number of demand (read+write) MSHR misses (Count)
system.cpu.dcache.overallMshrMisses::cpu.data        10434                       # number of overall MSHR misses (Count)
system.cpu.dcache.overallMshrMisses::total        10434                       # number of overall MSHR misses (Count)
system.cpu.dcache.demandMshrMissLatency::cpu.data    330745000                       # number of demand (read+write) MSHR miss ticks (Tick)
system.cpu.dcache.demandMshrMissLatency::total    330745000                       # number of demand (read+write) MSHR miss ticks (Tick)
system.cpu.dcache.overallMshrMissLatency::cpu.data    330745000                       # number of overall MSHR miss ticks (Tick)
system.cpu.dcache.overallMshrMissLatency::total    330745000                       # number of overall MSHR miss ticks (Tick)
system.cpu.dcache.demandMshrMissRate::cpu.data     0.018117                       # mshr miss ratio for demand accesses (Ratio)
system.cpu.dcache.demandMshrMissRate::total     0.018117                       # mshr miss ratio for demand accesses (Ratio)
system.cpu.dcache.overallMshrMissRate::cpu.data     0.018117                       # mshr miss ratio for overall accesses (Ratio)
system.cpu.dcache.overallMshrMissRate::total     0.018117                       # mshr miss ratio for overall accesses (Ratio)
system.cpu.dcache.demandAvgMshrMissLatency::cpu.data 31698.773241                       # average overall mshr miss latency ((Tick/Count))
system.cpu.dcache.demandAvgMshrMissLatency::total 31698.773241                       # average overall mshr miss latency ((Tick/Count))
system.cpu.dcache.overallAvgMshrMissLatency::cpu.data 31698.773241                       # average overall mshr miss latency ((Tick/Count))
system.cpu.dcache.overallAvgMshrMissLatency::total 31698.773241                       # average overall mshr miss latency ((Tick/Count))
system.cpu.dcache.replacements                   9411                       # number of replacements (Count)
system.cpu.dcache.LockedRMWReadReq.hits::cpu.data         2489                       # number of LockedRMWReadReq hits (Count)
system.cpu.dcache.LockedRMWReadReq.hits::total         2489                       # number of LockedRMWReadReq hits (Count)
system.cpu.dcache.LockedRMWReadReq.misses::cpu.data            3                       # number of LockedRMWReadReq misses (Count)
system.cpu.dcache.LockedRMWReadReq.misses::total            3                       # number of LockedRMWReadReq misses (Count)
system.cpu.dcache.LockedRMWReadReq.missLatency::cpu.data       120500                       # number of LockedRMWReadReq miss ticks (Tick)
system.cpu.dcache.LockedRMWReadReq.missLatency::total       120500                       # number of LockedRMWReadReq miss ticks (Tick)
system.cpu.dcache.LockedRMWReadReq.accesses::cpu.data         2492                       # number of LockedRMWReadReq accesses(hits+misses) (Count)
system.cpu.dcache.LockedRMWReadReq.accesses::total         2492                       # number of LockedRMWReadReq accesses(hits+misses) (Count)
system.cpu.dcache.LockedRMWReadReq.missRate::cpu.data     0.001204                       # miss rate for LockedRMWReadReq accesses (Ratio)
system.cpu.dcache.LockedRMWReadReq.missRate::total     0.001204                       # miss rate for LockedRMWReadReq accesses (Ratio)
system.cpu.dcache.LockedRMWReadReq.avgMissLatency::cpu.data 40166.666667                       # average LockedRMWReadReq miss latency ((Tick/Count))
system.cpu.dcache.LockedRMWReadReq.avgMissLatency::total 40166.666667                       # average LockedRMWReadReq miss latency ((Tick/Count))
system.cpu.dcache.LockedRMWReadReq.mshrMisses::cpu.data            3                       # number of LockedRMWReadReq MSHR misses (Count)
system.cpu.dcache.LockedRMWReadReq.mshrMisses::total            3                       # number of LockedRMWReadReq MSHR misses (Count)
system.cpu.dcache.LockedRMWReadReq.mshrMissLatency::cpu.data      9583500                       # number of LockedRMWReadReq MSHR miss ticks (Tick)
system.cpu.dcache.LockedRMWReadReq.mshrMissLatency::total      9583500                       # number of LockedRMWReadReq MSHR miss ticks (Tick)
system.cpu.dcache.LockedRMWReadReq.mshrMissRate::cpu.data     0.001204                       # mshr miss rate for LockedRMWReadReq accesses (Ratio)
system.cpu.dcache.LockedRMWReadReq.mshrMissRate::total     0.001204                       # mshr miss rate for LockedRMWReadReq accesses (Ratio)
system.cpu.dcache.LockedRMWReadReq.avgMshrMissLatency::cpu.data      3194500                       # average LockedRMWReadReq mshr miss latency ((Tick/Count))
system.cpu.dcache.LockedRMWReadReq.avgMshrMissLatency::total      3194500                       # average LockedRMWReadReq mshr miss latency ((Tick/Count))
system.cpu.dcache.LockedRMWWriteReq.hits::cpu.data         2492                       # number of LockedRMWWriteReq hits (Count)
system.cpu.dcache.LockedRMWWriteReq.hits::total         2492                       # number of LockedRMWWriteReq hits (Count)
system.cpu.dcache.LockedRMWWriteReq.accesses::cpu.data         2492                       # number of LockedRMWWriteReq accesses(hits+misses) (Count)
system.cpu.dcache.LockedRMWWriteReq.accesses::total         2492                       # number of LockedRMWWriteReq accesses(hits+misses) (Count)
system.cpu.dcache.ReadReq.hits::cpu.data       331739                       # number of ReadReq hits (Count)
system.cpu.dcache.ReadReq.hits::total          331739                       # number of ReadReq hits (Count)
system.cpu.dcache.ReadReq.misses::cpu.data        11025                       # number of ReadReq misses (Count)
system.cpu.dcache.ReadReq.misses::total         11025                       # number of ReadReq misses (Count)
system.cpu.dcache.ReadReq.missLatency::cpu.data    457325500                       # number of ReadReq miss ticks (Tick)
system.cpu.dcache.ReadReq.missLatency::total    457325500                       # number of ReadReq miss ticks (Tick)
system.cpu.dcache.ReadReq.accesses::cpu.data       342764                       # number of ReadReq accesses(hits+misses) (Count)
system.cpu.dcache.ReadReq.accesses::total       342764                       # number of ReadReq accesses(hits+misses) (Count)
system.cpu.dcache.ReadReq.missRate::cpu.data     0.032165                       # miss rate for ReadReq accesses (Ratio)
system.cpu.dcache.ReadReq.missRate::total     0.032165                       # miss rate for ReadReq accesses (Ratio)
system.cpu.dcache.ReadReq.avgMissLatency::cpu.data 41480.770975                       # average ReadReq miss latency ((Tick/Count))
system.cpu.dcache.ReadReq.avgMissLatency::total 41480.770975                       # average ReadReq miss latency ((Tick/Count))
system.cpu.dcache.ReadReq.mshrHits::cpu.data         8311                       # number of ReadReq MSHR hits (Count)
system.cpu.dcache.ReadReq.mshrHits::total         8311                       # number of ReadReq MSHR hits (Count)
system.cpu.dcache.ReadReq.mshrMisses::cpu.data         2714                       # number of ReadReq MSHR misses (Count)
system.cpu.dcache.ReadReq.mshrMisses::total         2714                       # number of ReadReq MSHR misses (Count)
system.cpu.dcache.ReadReq.mshrMissLatency::cpu.data    124213000                       # number of ReadReq MSHR miss ticks (Tick)
system.cpu.dcache.ReadReq.mshrMissLatency::total    124213000                       # number of ReadReq MSHR miss ticks (Tick)
system.cpu.dcache.ReadReq.mshrMissRate::cpu.data     0.007918                       # mshr miss rate for ReadReq accesses (Ratio)
system.cpu.dcache.ReadReq.mshrMissRate::total     0.007918                       # mshr miss rate for ReadReq accesses (Ratio)
system.cpu.dcache.ReadReq.avgMshrMissLatency::cpu.data 45767.501842                       # average ReadReq mshr miss latency ((Tick/Count))
system.cpu.dcache.ReadReq.avgMshrMissLatency::total 45767.501842                       # average ReadReq mshr miss latency ((Tick/Count))
system.cpu.dcache.WriteReq.hits::cpu.data       225428                       # number of WriteReq hits (Count)
system.cpu.dcache.WriteReq.hits::total         225428                       # number of WriteReq hits (Count)
system.cpu.dcache.WriteReq.misses::cpu.data         7725                       # number of WriteReq misses (Count)
system.cpu.dcache.WriteReq.misses::total         7725                       # number of WriteReq misses (Count)
system.cpu.dcache.WriteReq.missLatency::cpu.data    214550999                       # number of WriteReq miss ticks (Tick)
system.cpu.dcache.WriteReq.missLatency::total    214550999                       # number of WriteReq miss ticks (Tick)
system.cpu.dcache.WriteReq.accesses::cpu.data       233153                       # number of WriteReq accesses(hits+misses) (Count)
system.cpu.dcache.WriteReq.accesses::total       233153                       # number of WriteReq accesses(hits+misses) (Count)
system.cpu.dcache.WriteReq.missRate::cpu.data     0.033133                       # miss rate for WriteReq accesses (Ratio)
system.cpu.dcache.WriteReq.missRate::total     0.033133                       # miss rate for WriteReq accesses (Ratio)
system.cpu.dcache.WriteReq.avgMissLatency::cpu.data 27773.592104                       # average WriteReq miss latency ((Tick/Count))
system.cpu.dcache.WriteReq.avgMissLatency::total 27773.592104                       # average WriteReq miss latency ((Tick/Count))
system.cpu.dcache.WriteReq.mshrHits::cpu.data            5                       # number of WriteReq MSHR hits (Count)
system.cpu.dcache.WriteReq.mshrHits::total            5                       # number of WriteReq MSHR hits (Count)
system.cpu.dcache.WriteReq.mshrMisses::cpu.data         7720                       # number of WriteReq MSHR misses (Count)
system.cpu.dcache.WriteReq.mshrMisses::total         7720                       # number of WriteReq MSHR misses (Count)
system.cpu.dcache.WriteReq.mshrMissLatency::cpu.data    206532000                       # number of WriteReq MSHR miss ticks (Tick)
system.cpu.dcache.WriteReq.mshrMissLatency::total    206532000                       # number of WriteReq MSHR miss ticks (Tick)
system.cpu.dcache.WriteReq.mshrMissRate::cpu.data     0.033111                       # mshr miss rate for WriteReq accesses (Ratio)
system.cpu.dcache.WriteReq.mshrMissRate::total     0.033111                       # mshr miss rate for WriteReq accesses (Ratio)
system.cpu.dcache.WriteReq.avgMshrMissLatency::cpu.data 26752.849741                       # average WriteReq mshr miss latency ((Tick/Count))
system.cpu.dcache.WriteReq.avgMshrMissLatency::total 26752.849741                       # average WriteReq mshr miss latency ((Tick/Count))
system.cpu.dcache.power_state.pwrStateResidencyTicks::UNDEFINED    764320000                       # Cumulative time (in ticks) in various power states (Tick)
system.cpu.dcache.tags.tagsInUse           953.989860                       # Average ticks per tags in use ((Tick/Count))
system.cpu.dcache.tags.totalRefs               572587                       # Total number of references to valid blocks. (Count)
system.cpu.dcache.tags.sampledRefs              10435                       # Sample count of references to valid blocks. (Count)
system.cpu.dcache.tags.avgRefs              54.871778                       # Average number of references to valid blocks. ((Count/Count))
system.cpu.dcache.tags.warmupTick              170500                       # The tick when the warmup percentage was hit. (Tick)
system.cpu.dcache.tags.occupancies::cpu.data   953.989860                       # Average occupied blocks per tick, per requestor ((Count/Tick))
system.cpu.dcache.tags.avgOccs::cpu.data     0.931631                       # Average percentage of cache occupancy ((Ratio/Tick))
system.cpu.dcache.tags.avgOccs::total        0.931631                       # Average percentage of cache occupancy ((Ratio/Tick))
system.cpu.dcache.tags.occupanciesTaskId::1024         1024                       # Occupied blocks per task id (Count)
system.cpu.dcache.tags.ageTaskId_1024::0          100                       # Occupied blocks per task id, per block age (Count)
system.cpu.dcache.tags.ageTaskId_1024::1          406                       # Occupied blocks per task id, per block age (Count)
system.cpu.dcache.tags.ageTaskId_1024::2          518                       # Occupied blocks per task id, per block age (Count)
system.cpu.dcache.tags.ratioOccsTaskId::1024            1                       # Ratio of occupied blocks and all blocks, per task id (Ratio)
system.cpu.dcache.tags.tagAccesses            2334039                       # Number of tag accesses (Count)
system.cpu.dcache.tags.dataAccesses           2334039                       # Number of data accesses (Count)
system.cpu.dcache.tags.power_state.pwrStateResidencyTicks::UNDEFINED    764320000                       # Cumulative time (in ticks) in various power states (Tick)
system.cpu.decode.idleCycles                   266504                       # Number of cycles decode is idle (Cycle)
system.cpu.decode.blockedCycles                670558                       # Number of cycles decode is blocked (Cycle)
system.cpu.decode.runCycles                    371683                       # Number of cycles decode is running (Cycle)
system.cpu.decode.unblockCycles                 96758                       # Number of cycles decode is unblocking (Cycle)
system.cpu.decode.squashCycles                   9906                       # Number of cycles decode is squashing (Cycle)
system.cpu.decode.branchResolved               131323                       # Number of times decode resolved a branch (Count)
system.cpu.decode.branchMispred                   740                       # Number of times decode detected a branch misprediction (Count)
system.cpu.decode.decodedInsts                3107852                       # Number of instructions handled by decode (Count)
system.cpu.decode.squashedInsts                  3453                       # Number of squashed instructions handled by decode (Count)
system.cpu.fetch.icacheStallCycles             322971                       # Number of cycles fetch is stalled on an Icache miss (Cycle)
system.cpu.fetch.insts                        1822643                       # Number of instructions fetch has processed (Count)
system.cpu.fetch.branches                      277950                       # Number of branches that fetch encountered (Count)
system.cpu.fetch.predictedBranches             166073                       # Number of branches that fetch has predicted taken (Count)
system.cpu.fetch.cycles                       1078821                       # Number of cycles fetch has run and was not squashing or blocked (Cycle)
system.cpu.fetch.squashCycles                   21262                       # Number of cycles fetch has spent squashing (Cycle)
system.cpu.fetch.miscStallCycles                  350                       # Number of cycles fetch has spent waiting on interrupts, or bad addresses, or out of MSHRs (Cycle)
system.cpu.fetch.pendingTrapStallCycles          2632                       # Number of stall cycles due to pending traps (Cycle)
system.cpu.fetch.icacheWaitRetryStallCycles            4                       # Number of stall cycles due to full MSHR (Cycle)
system.cpu.fetch.cacheLines                    265609                       # Number of cache lines fetched (Count)
system.cpu.fetch.icacheSquashes                  3602                       # Number of outstanding Icache misses that were squashed (Count)
system.cpu.fetch.nisnDist::samples            1415409                       # Number of instructions fetched each cycle (Total) (Count)
system.cpu.fetch.nisnDist::mean              2.257864                       # Number of instructions fetched each cycle (Total) (Count)
system.cpu.fetch.nisnDist::stdev             3.253258                       # Number of instructions fetched each cycle (Total) (Count)
system.cpu.fetch.nisnDist::underflows               0      0.00%      0.00% # Number of instructions fetched each cycle (Total) (Count)
system.cpu.fetch.nisnDist::0                   876437     61.92%     61.92% # Number of instructions fetched each cycle (Total) (Count)
system.cpu.fetch.nisnDist::1                    27931      1.97%     63.89% # Number of instructions fetched each cycle (Total) (Count)
system.cpu.fetch.nisnDist::2                    55461      3.92%     67.81% # Number of instructions fetched each cycle (Total) (Count)
system.cpu.fetch.nisnDist::3                    29753      2.10%     69.91% # Number of instructions fetched each cycle (Total) (Count)
system.cpu.fetch.nisnDist::4                    54625      3.86%     73.77% # Number of instructions fetched each cycle (Total) (Count)
system.cpu.fetch.nisnDist::5                    49040      3.46%     77.24% # Number of instructions fetched each cycle (Total) (Count)
system.cpu.fetch.nisnDist::6                    29802      2.11%     79.34% # Number of instructions fetched each cycle (Total) (Count)
system.cpu.fetch.nisnDist::7                    13703      0.97%     80.31% # Number of instructions fetched each cycle (Total) (Count)
system.cpu.fetch.nisnDist::8                   278657     19.69%    100.00% # Number of instructions fetched each cycle (Total) (Count)
system.cpu.fetch.nisnDist::overflows                0      0.00%    100.00% # Number of instructions fetched each cycle (Total) (Count)
system.cpu.fetch.nisnDist::min_value                0                       # Number of instructions fetched each cycle (Total) (Count)
system.cpu.fetch.nisnDist::max_value                8                       # Number of instructions fetched each cycle (Total) (Count)
system.cpu.fetch.nisnDist::total              1415409                       # Number of instructions fetched each cycle (Total) (Count)
system.cpu.fetch.branchRate                  0.181828                       # Number of branch fetches per cycle (Ratio)
system.cpu.fetch.rate                        1.192329                       # Number of inst fetches per cycle ((Count/Cycle))
system.cpu.icache.demandHits::cpu.inst         263112                       # number of demand (read+write) hits (Count)
system.cpu.icache.demandHits::total            263112                       # number of demand (read+write) hits (Count)
system.cpu.icache.overallHits::cpu.inst        263112                       # number of overall hits (Count)
system.cpu.icache.overallHits::total           263112                       # number of overall hits (Count)
system.cpu.icache.demandMisses::cpu.inst         2497                       # number of demand (read+write) misses (Count)
system.cpu.icache.demandMisses::total            2497                       # number of demand (read+write) misses (Count)
system.cpu.icache.overallMisses::cpu.inst         2497                       # number of overall misses (Count)
system.cpu.icache.overallMisses::total           2497                       # number of overall misses (Count)
system.cpu.icache.demandMissLatency::cpu.inst    152717000                       # number of demand (read+write) miss ticks (Tick)
system.cpu.icache.demandMissLatency::total    152717000                       # number of demand (read+write) miss ticks (Tick)
system.cpu.icache.overallMissLatency::cpu.inst    152717000                       # number of overall miss ticks (Tick)
system.cpu.icache.overallMissLatency::total    152717000                       # number of overall miss ticks (Tick)
system.cpu.icache.demandAccesses::cpu.inst       265609                       # number of demand (read+write) accesses (Count)
system.cpu.icache.demandAccesses::total        265609                       # number of demand (read+write) accesses (Count)
system.cpu.icache.overallAccesses::cpu.inst       265609                       # number of overall (read+write) accesses (Count)
system.cpu.icache.overallAccesses::total       265609                       # number of overall (read+write) accesses (Count)
system.cpu.icache.demandMissRate::cpu.inst     0.009401                       # miss rate for demand accesses (Ratio)
system.cpu.icache.demandMissRate::total      0.009401                       # miss rate for demand accesses (Ratio)
system.cpu.icache.overallMissRate::cpu.inst     0.009401                       # miss rate for overall accesses (Ratio)
system.cpu.icache.overallMissRate::total     0.009401                       # miss rate for overall accesses (Ratio)
system.cpu.icache.demandAvgMissLatency::cpu.inst 61160.192231                       # average overall miss latency in ticks ((Tick/Count))
system.cpu.icache.demandAvgMissLatency::total 61160.192231                       # average overall miss latency in ticks ((Tick/Count))
system.cpu.icache.overallAvgMissLatency::cpu.inst 61160.192231                       # average overall miss latency ((Tick/Count))
system.cpu.icache.overallAvgMissLatency::total 61160.192231                       # average overall miss latency ((Tick/Count))
system.cpu.icache.blockedCycles::no_mshrs          309                       # number of cycles access was blocked (Cycle)
system.cpu.icache.blockedCycles::no_targets            0                       # number of cycles access was blocked (Cycle)
system.cpu.icache.blockedCauses::no_mshrs            5                       # number of times access was blocked (Count)
system.cpu.icache.blockedCauses::no_targets            0                       # number of times access was blocked (Count)
system.cpu.icache.avgBlocked::no_mshrs      61.800000                       # average number of cycles each access was blocked ((Cycle/Count))
system.cpu.icache.avgBlocked::no_targets          nan                       # average number of cycles each access was blocked ((Cycle/Count))
system.cpu.icache.writebacks::writebacks            2                       # number of writebacks (Count)
system.cpu.icache.writebacks::total                 2                       # number of writebacks (Count)
system.cpu.icache.demandMshrHits::cpu.inst          584                       # number of demand (read+write) MSHR hits (Count)
system.cpu.icache.demandMshrHits::total           584                       # number of demand (read+write) MSHR hits (Count)
system.cpu.icache.overallMshrHits::cpu.inst          584                       # number of overall MSHR hits (Count)
system.cpu.icache.overallMshrHits::total          584                       # number of overall MSHR hits (Count)
system.cpu.icache.demandMshrMisses::cpu.inst         1913                       # number of demand (read+write) MSHR misses (Count)
system.cpu.icache.demandMshrMisses::total         1913                       # number of demand (read+write) MSHR misses (Count)
system.cpu.icache.overallMshrMisses::cpu.inst         1913                       # number of overall MSHR misses (Count)
system.cpu.icache.overallMshrMisses::total         1913                       # number of overall MSHR misses (Count)
system.cpu.icache.demandMshrMissLatency::cpu.inst    119599500                       # number of demand (read+write) MSHR miss ticks (Tick)
system.cpu.icache.demandMshrMissLatency::total    119599500                       # number of demand (read+write) MSHR miss ticks (Tick)
system.cpu.icache.overallMshrMissLatency::cpu.inst    119599500                       # number of overall MSHR miss ticks (Tick)
system.cpu.icache.overallMshrMissLatency::total    119599500                       # number of overall MSHR miss ticks (Tick)
system.cpu.icache.demandMshrMissRate::cpu.inst     0.007202                       # mshr miss ratio for demand accesses (Ratio)
system.cpu.icache.demandMshrMissRate::total     0.007202                       # mshr miss ratio for demand accesses (Ratio)
system.cpu.icache.overallMshrMissRate::cpu.inst     0.007202                       # mshr miss ratio for overall accesses (Ratio)
system.cpu.icache.overallMshrMissRate::total     0.007202                       # mshr miss ratio for overall accesses (Ratio)
system.cpu.icache.demandAvgMshrMissLatency::cpu.inst 62519.341349                       # average overall mshr miss latency ((Tick/Count))
system.cpu.icache.demandAvgMshrMissLatency::total 62519.341349                       # average overall mshr miss latency ((Tick/Count))
system.cpu.icache.overallAvgMshrMissLatency::cpu.inst 62519.341349                       # average overall mshr miss latency ((Tick/Count))
system.cpu.icache.overallAvgMshrMissLatency::total 62519.341349                       # average overall mshr miss latency ((Tick/Count))
system.cpu.icache.replacements                   1654                       # number of replacements (Count)
system.cpu.icache.ReadReq.hits::cpu.inst       263112                       # number of ReadReq hits (Count)
system.cpu.icache.ReadReq.hits::total          263112                       # number of ReadReq hits (Count)
system.cpu.icache.ReadReq.misses::cpu.inst         2497                       # number of ReadReq misses (Count)
system.cpu.icache.ReadReq.misses::total          2497                       # number of ReadReq misses (Count)
system.cpu.icache.ReadReq.missLatency::cpu.inst    152717000                       # number of ReadReq miss ticks (Tick)
system.cpu.icache.ReadReq.missLatency::total    152717000                       # number of ReadReq miss ticks (Tick)
system.cpu.icache.ReadReq.accesses::cpu.inst       265609                       # number of ReadReq accesses(hits+misses) (Count)
system.cpu.icache.ReadReq.accesses::total       265609                       # number of ReadReq accesses(hits+misses) (Count)
system.cpu.icache.ReadReq.missRate::cpu.inst     0.009401                       # miss rate for ReadReq accesses (Ratio)
system.cpu.icache.ReadReq.missRate::total     0.009401                       # miss rate for ReadReq accesses (Ratio)
system.cpu.icache.ReadReq.avgMissLatency::cpu.inst 61160.192231                       # average ReadReq miss latency ((Tick/Count))
system.cpu.icache.ReadReq.avgMissLatency::total 61160.192231                       # average ReadReq miss latency ((Tick/Count))
system.cpu.icache.ReadReq.mshrHits::cpu.inst          584                       # number of ReadReq MSHR hits (Count)
system.cpu.icache.ReadReq.mshrHits::total          584                       # number of ReadReq MSHR hits (Count)
system.cpu.icache.ReadReq.mshrMisses::cpu.inst         1913                       # number of ReadReq MSHR misses (Count)
system.cpu.icache.ReadReq.mshrMisses::total         1913                       # number of ReadReq MSHR misses (Count)
system.cpu.icache.ReadReq.mshrMissLatency::cpu.inst    119599500                       # number of ReadReq MSHR miss ticks (Tick)
system.cpu.icache.ReadReq.mshrMissLatency::total    119599500                       # number of ReadReq MSHR miss ticks (Tick)
system.cpu.icache.ReadReq.mshrMissRate::cpu.inst     0.007202                       # mshr miss rate for ReadReq accesses (Ratio)
system.cpu.icache.ReadReq.mshrMissRate::total     0.007202                       # mshr miss rate for ReadReq accesses (Ratio)
system.cpu.icache.ReadReq.avgMshrMissLatency::cpu.inst 62519.341349                       # average ReadReq mshr miss latency ((Tick/Count))
system.cpu.icache.ReadReq.avgMshrMissLatency::total 62519.341349                       # average ReadReq mshr miss latency ((Tick/Count))
system.cpu.icache.power_state.pwrStateResidencyTicks::UNDEFINED    764320000                       # Cumulative time (in ticks) in various power states (Tick)
system.cpu.icache.tags.tagsInUse           251.732530                       # Average ticks per tags in use ((Tick/Count))
system.cpu.icache.tags.totalRefs               265024                       # Total number of references to valid blocks. (Count)
system.cpu.icache.tags.sampledRefs               1912                       # Sample count of references to valid blocks. (Count)
system.cpu.icache.tags.avgRefs             138.610879                       # Average number of references to valid blocks. ((Count/Count))
system.cpu.icache.tags.warmupTick               82000                       # The tick when the warmup percentage was hit. (Tick)
system.cpu.icache.tags.occupancies::cpu.inst   251.732530                       # Average occupied blocks per tick, per requestor ((Count/Tick))
system.cpu.icache.tags.avgOccs::cpu.inst     0.983330                       # Average percentage of cache occupancy ((Ratio/Tick))
system.cpu.icache.tags.avgOccs::total        0.983330                       # Average percentage of cache occupancy ((Ratio/Tick))
system.cpu.icache.tags.occupanciesTaskId::1024          256                       # Occupied blocks per task id (Count)
system.cpu.icache.tags.ageTaskId_1024::0          172                       # Occupied blocks per task id, per block age (Count)
system.cpu.icache.tags.ageTaskId_1024::1           20                       # Occupied blocks per task id, per block age (Count)
system.cpu.icache.tags.ageTaskId_1024::2           64                       # Occupied blocks per task id, per block age (Count)
system.cpu.icache.tags.ratioOccsTaskId::1024            1                       # Ratio of occupied blocks and all blocks, per task id (Ratio)
system.cpu.icache.tags.tagAccesses            1064348                       # Number of tag accesses (Count)
system.cpu.icache.tags.dataAccesses           1064348                       # Number of data accesses (Count)
system.cpu.icache.tags.power_state.pwrStateResidencyTicks::UNDEFINED    764320000                       # Cumulative time (in ticks) in various power states (Tick)
system.cpu.iew.idleCycles                           0                       # Number of cycles IEW is idle (Cycle)
system.cpu.iew.squashCycles                      9906                       # Number of cycles IEW is squashing (Cycle)
system.cpu.iew.blockCycles                     162060                       # Number of cycles IEW is blocking (Cycle)
system.cpu.iew.unblockCycles                    11475                       # Number of cycles IEW is unblocking (Cycle)
system.cpu.iew.dispatchedInsts                3016869                       # Number of instructions dispatched to IQ (Count)
system.cpu.iew.dispSquashedInsts                  295                       # Number of squashed instructions skipped by dispatch (Count)
system.cpu.iew.dispLoadInsts                   542411                       # Number of dispatched load instructions (Count)
system.cpu.iew.dispStoreInsts                  252533                       # Number of dispatched store instructions (Count)
system.cpu.iew.dispNonSpecInsts                  2534                       # Number of dispatched non-speculative instructions (Count)
system.cpu.iew.iqFullEvents                      5044                       # Number of times the IQ has become full, causing a stall (Count)
system.cpu.iew.lsqFullEvents                     4686                       # Number of times the LSQ has become full, causing a stall (Count)
system.cpu.iew.memOrderViolationEvents           5050                       # Number of memory order violations (Count)
system.cpu.iew.predictedTakenIncorrect           1863                       # Number of branches that were predicted taken incorrectly (Count)
system.cpu.iew.predictedNotTakenIncorrect         3437                       # Number of branches that were predicted not taken incorrectly (Count)
system.cpu.iew.branchMispredicts                 5300                       # Number of branch mispredicts detected at execute (Count)
system.cpu.iew.instsToCommit                  2879737                       # Cumulative count of insts sent to commit (Count)
system.cpu.iew.writebackCount                 2873823                       # Cumulative count of insts written-back (Count)
system.cpu.iew.producerInst                   2136749                       # Number of instructions producing a value (Count)
system.cpu.iew.consumerInst                   3468544                       # Number of instructions consuming a value (Count)
system.cpu.iew.wbRate                        1.879986                       # Insts written-back per cycle ((Count/Cycle))
system.cpu.iew.wbFanout                      0.616036                       # Average fanout of values written-back ((Count/Count))
system.cpu.interrupts.clk_domain.clock           8000                       # Clock period in ticks (Tick)
system.cpu.l2cache.demandHits::cpu.inst           320                       # number of demand (read+write) hits (Count)
system.cpu.l2cache.demandHits::cpu.data          7066                       # number of demand (read+write) hits (Count)
system.cpu.l2cache.demandHits::total             7386                       # number of demand (read+write) hits (Count)
system.cpu.l2cache.overallHits::cpu.inst          320                       # number of overall hits (Count)
system.cpu.l2cache.overallHits::cpu.data         7066                       # number of overall hits (Count)
system.cpu.l2cache.overallHits::total            7386                       # number of overall hits (Count)
system.cpu.l2cache.demandMisses::cpu.inst         1590                       # number of demand (read+write) misses (Count)
system.cpu.l2cache.demandMisses::cpu.data         3367                       # number of demand (read+write) misses (Count)
system.cpu.l2cache.demandMisses::total           4957                       # number of demand (read+write) misses (Count)
system.cpu.l2cache.overallMisses::cpu.inst         1590                       # number of overall misses (Count)
system.cpu.l2cache.overallMisses::cpu.data         3367                       # number of overall misses (Count)
system.cpu.l2cache.overallMisses::total          4957                       # number of overall misses (Count)
system.cpu.l2cache.demandMissLatency::cpu.inst    113349500                       # number of demand (read+write) miss ticks (Tick)
system.cpu.l2cache.demandMissLatency::cpu.data    240905500                       # number of demand (read+write) miss ticks (Tick)
system.cpu.l2cache.demandMissLatency::total    354255000                       # number of demand (read+write) miss ticks (Tick)
system.cpu.l2cache.overallMissLatency::cpu.inst    113349500                       # number of overall miss ticks (Tick)
system.cpu.l2cache.overallMissLatency::cpu.data    240905500                       # number of overall miss ticks (Tick)
system.cpu.l2cache.overallMissLatency::total    354255000                       # number of overall miss ticks (Tick)
system.cpu.l2cache.demandAccesses::cpu.inst         1910                       # number of demand (read+write) accesses (Count)
system.cpu.l2cache.demandAccesses::cpu.data        10433                       # number of demand (read+write) accesses (Count)
system.cpu.l2cache.demandAccesses::total        12343                       # number of demand (read+write) accesses (Count)
system.cpu.l2cache.overallAccesses::cpu.inst         1910                       # number of overall (read+write) accesses (Count)
system.cpu.l2cache.overallAccesses::cpu.data        10433                       # number of overall (read+write) accesses (Count)
system.cpu.l2cache.overallAccesses::total        12343                       # number of overall (read+write) accesses (Count)
system.cpu.l2cache.demandMissRate::cpu.inst     0.832461                       # miss rate for demand accesses (Ratio)
system.cpu.l2cache.demandMissRate::cpu.data     0.322726                       # miss rate for demand accesses (Ratio)
system.cpu.l2cache.demandMissRate::total     0.401604                       # miss rate for demand accesses (Ratio)
system.cpu.l2cache.overallMissRate::cpu.inst     0.832461                       # miss rate for overall accesses (Ratio)
system.cpu.l2cache.overallMissRate::cpu.data     0.322726                       # miss rate for overall accesses (Ratio)
system.cpu.l2cache.overallMissRate::total     0.401604                       # miss rate for overall accesses (Ratio)
system.cpu.l2cache.demandAvgMissLatency::cpu.inst 71288.993711                       # average overall miss latency in ticks ((Tick/Count))
[...]
system.mem_ctrl.requestorReadAvgLat::cpu.data     25828.78                       # Per-requestor read average memory access latency ((Tick/Count))
system.mem_ctrl.dram.bytesRead::cpu.inst       101696                       # Number of bytes read from this memory (Byte)
system.mem_ctrl.dram.bytesRead::cpu.data       215488                       # Number of bytes read from this memory (Byte)
system.mem_ctrl.dram.bytesRead::total          317184                       # Number of bytes read from this memory (Byte)
system.mem_ctrl.dram.bytesInstRead::cpu.inst       101696                       # Number of instructions bytes read from this memory (Byte)
system.mem_ctrl.dram.bytesInstRead::total       101696                       # Number of instructions bytes read from this memory (Byte)
system.mem_ctrl.dram.numReads::cpu.inst          1589                       # Number of read requests responded to by this memory (Count)
system.mem_ctrl.dram.numReads::cpu.data          3367                       # Number of read requests responded to by this memory (Count)
system.mem_ctrl.dram.numReads::total             4956                       # Number of read requests responded to by this memory (Count)
system.mem_ctrl.dram.bwRead::cpu.inst       133054218                       # Total read bandwidth from this memory ((Byte/Second))
system.mem_ctrl.dram.bwRead::cpu.data       281934268                       # Total read bandwidth from this memory ((Byte/Second))
system.mem_ctrl.dram.bwRead::total          414988486                       # Total read bandwidth from this memory ((Byte/Second))
system.mem_ctrl.dram.bwInstRead::cpu.inst    133054218                       # Instruction read bandwidth from this memory ((Byte/Second))
system.mem_ctrl.dram.bwInstRead::total      133054218                       # Instruction read bandwidth from this memory ((Byte/Second))
system.mem_ctrl.dram.bwTotal::cpu.inst      133054218                       # Total bandwidth to/from this memory ((Byte/Second))
system.mem_ctrl.dram.bwTotal::cpu.data      281934268                       # Total bandwidth to/from this memory ((Byte/Second))
system.mem_ctrl.dram.bwTotal::total         414988486                       # Total bandwidth to/from this memory ((Byte/Second))
system.mem_ctrl.dram.readBursts                  4956                       # Number of DRAM read bursts (Count)
system.mem_ctrl.dram.writeBursts                    0                       # Number of DRAM write bursts (Count)
system.mem_ctrl.dram.perBankRdBursts::0           398                       # Per bank write bursts (Count)
system.mem_ctrl.dram.perBankRdBursts::1           497                       # Per bank write bursts (Count)
system.mem_ctrl.dram.perBankRdBursts::2           414                       # Per bank write bursts (Count)
system.mem_ctrl.dram.perBankRdBursts::3           479                       # Per bank write bursts (Count)
system.mem_ctrl.dram.perBankRdBursts::4           316                       # Per bank write bursts (Count)
system.mem_ctrl.dram.perBankRdBursts::5           227                       # Per bank write bursts (Count)
system.mem_ctrl.dram.perBankRdBursts::6           172                       # Per bank write bursts (Count)
system.mem_ctrl.dram.perBankRdBursts::7           296                       # Per bank write bursts (Count)
system.mem_ctrl.dram.perBankRdBursts::8           162                       # Per bank write bursts (Count)
system.mem_ctrl.dram.perBankRdBursts::9           121                       # Per bank write bursts (Count)
system.mem_ctrl.dram.perBankRdBursts::10          215                       # Per bank write bursts (Count)
system.mem_ctrl.dram.perBankRdBursts::11          305                       # Per bank write bursts (Count)
system.mem_ctrl.dram.perBankRdBursts::12          316                       # Per bank write bursts (Count)
system.mem_ctrl.dram.perBankRdBursts::13          279                       # Per bank write bursts (Count)
system.mem_ctrl.dram.perBankRdBursts::14          363                       # Per bank write bursts (Count)
system.mem_ctrl.dram.perBankRdBursts::15          396                       # Per bank write bursts (Count)
system.mem_ctrl.dram.perBankWrBursts::0             0                       # Per bank write bursts (Count)
system.mem_ctrl.dram.perBankWrBursts::1             0                       # Per bank write bursts (Count)
system.mem_ctrl.dram.perBankWrBursts::2             0                       # Per bank write bursts (Count)
system.mem_ctrl.dram.perBankWrBursts::3             0                       # Per bank write bursts (Count)
system.mem_ctrl.dram.perBankWrBursts::4             0                       # Per bank write bursts (Count)
system.mem_ctrl.dram.perBankWrBursts::5             0                       # Per bank write bursts (Count)
system.mem_ctrl.dram.perBankWrBursts::6             0                       # Per bank write bursts (Count)
system.mem_ctrl.dram.perBankWrBursts::7             0                       # Per bank write bursts (Count)
system.mem_ctrl.dram.perBankWrBursts::8             0                       # Per bank write bursts (Count)
system.mem_ctrl.dram.perBankWrBursts::9             0                       # Per bank write bursts (Count)
system.mem_ctrl.dram.perBankWrBursts::10            0                       # Per bank write bursts (Count)
system.mem_ctrl.dram.perBankWrBursts::11            0                       # Per bank write bursts (Count)
system.mem_ctrl.dram.perBankWrBursts::12            0                       # Per bank write bursts (Count)
system.mem_ctrl.dram.perBankWrBursts::13            0                       # Per bank write bursts (Count)
system.mem_ctrl.dram.perBankWrBursts::14            0                       # Per bank write bursts (Count)
system.mem_ctrl.dram.perBankWrBursts::15            0                       # Per bank write bursts (Count)
system.mem_ctrl.dram.totQLat                 34737250                       # Total ticks spent queuing (Tick)
system.mem_ctrl.dram.totBusLat               24780000                       # Total ticks spent in databus transfers (Tick)
system.mem_ctrl.dram.totMemAccLat           127662250                       # Total ticks spent from burst creation until serviced by the DRAM (Tick)
system.mem_ctrl.dram.avgQLat                  7009.13                       # Average queueing delay per DRAM burst ((Tick/Count))
system.mem_ctrl.dram.avgBusLat                5000.00                       # Average bus latency per DRAM burst ((Tick/Count))
system.mem_ctrl.dram.avgMemAccLat            25759.13                       # Average memory access latency per DRAM burst ((Tick/Count))
system.mem_ctrl.dram.readRowHits                 4124                       # Number of row buffer hits during reads (Count)
system.mem_ctrl.dram.writeRowHits                   0                       # Number of row buffer hits during writes (Count)
system.mem_ctrl.dram.readRowHitRate             83.21                       # Row buffer hit rate for reads (Ratio)
system.mem_ctrl.dram.writeRowHitRate              nan                       # Row buffer hit rate for writes (Ratio)
system.mem_ctrl.dram.bytesPerActivate::samples          827                       # Bytes accessed per row activation (Byte)
system.mem_ctrl.dram.bytesPerActivate::mean   381.987908                       # Bytes accessed per row activation (Byte)
system.mem_ctrl.dram.bytesPerActivate::gmean   228.167500                       # Bytes accessed per row activation (Byte)
system.mem_ctrl.dram.bytesPerActivate::stdev   368.495265                       # Bytes accessed per row activation (Byte)
system.mem_ctrl.dram.bytesPerActivate::0-127          220     26.60%     26.60% # Bytes accessed per row activation (Byte)
system.mem_ctrl.dram.bytesPerActivate::128-255          238     28.78%     55.38% # Bytes accessed per row activation (Byte)
system.mem_ctrl.dram.bytesPerActivate::256-383           77      9.31%     64.69% # Bytes accessed per row activation (Byte)
system.mem_ctrl.dram.bytesPerActivate::384-511           40      4.84%     69.53% # Bytes accessed per row activation (Byte)
system.mem_ctrl.dram.bytesPerActivate::512-639           35      4.23%     73.76% # Bytes accessed per row activation (Byte)
system.mem_ctrl.dram.bytesPerActivate::640-767           23      2.78%     76.54% # Bytes accessed per row activation (Byte)
system.mem_ctrl.dram.bytesPerActivate::768-895           16      1.93%     78.48% # Bytes accessed per row activation (Byte)
system.mem_ctrl.dram.bytesPerActivate::896-1023           23      2.78%     81.26% # Bytes accessed per row activation (Byte)
system.mem_ctrl.dram.bytesPerActivate::1024-1151          155     18.74%    100.00% # Bytes accessed per row activation (Byte)
system.mem_ctrl.dram.bytesPerActivate::total          827                       # Bytes accessed per row activation (Byte)
system.mem_ctrl.dram.bytesRead                 317184                       # Total bytes read (Byte)
system.mem_ctrl.dram.bytesWritten                   0                       # Total bytes written (Byte)
system.mem_ctrl.dram.avgRdBW               414.988486                       # Average DRAM read bandwidth in MiBytes/s ((Byte/Second))
system.mem_ctrl.dram.avgWrBW                        0                       # Average DRAM write bandwidth in MiBytes/s ((Byte/Second))
system.mem_ctrl.dram.peakBW                  12800.00                       # Theoretical peak bandwidth in MiByte/s ((Byte/Second))
system.mem_ctrl.dram.busUtil                     3.24                       # Data bus utilization in percentage (Ratio)
system.mem_ctrl.dram.busUtilRead                 3.24                       # Data bus utilization in percentage for reads (Ratio)
system.mem_ctrl.dram.busUtilWrite                0.00                       # Data bus utilization in percentage for writes (Ratio)
system.mem_ctrl.dram.pageHitRate                83.21                       # Row buffer hit rate, read and write combined (Ratio)
system.mem_ctrl.dram.power_state.pwrStateResidencyTicks::UNDEFINED    764320000                       # Cumulative time (in ticks) in various power states (Tick)
system.mem_ctrl.dram.rank0.actEnergy          3227280                       # Energy for activate commands per rank (pJ) (Joule)
system.mem_ctrl.dram.rank0.preEnergy          1707750                       # Energy for precharge commands per rank (pJ) (Joule)
system.mem_ctrl.dram.rank0.readEnergy        19984860                       # Energy for read commands per rank (pJ) (Joule)
system.mem_ctrl.dram.rank0.writeEnergy              0                       # Energy for write commands per rank (pJ) (Joule)
system.mem_ctrl.dram.rank0.refreshEnergy 60234720.000000                       # Energy for refresh commands per rank (pJ) (Joule)
system.mem_ctrl.dram.rank0.actBackEnergy    199848840                       # Energy for active background per rank (pJ) (Joule)
system.mem_ctrl.dram.rank0.preBackEnergy    125205120                       # Energy for precharge background per rank (pJ) (Joule)
system.mem_ctrl.dram.rank0.actPowerDownEnergy            0                       # Energy for active power-down per rank (pJ) (Joule)
system.mem_ctrl.dram.rank0.prePowerDownEnergy            0                       # Energy for precharge power-down per rank (pJ) (Joule)
system.mem_ctrl.dram.rank0.selfRefreshEnergy            0                       # Energy for self refresh per rank (pJ) (Joule)
system.mem_ctrl.dram.rank0.totalEnergy      410208570                       # Total energy per rank (pJ) (Joule)
system.mem_ctrl.dram.rank0.averagePower    536.697417                       # Core power per rank (mW) (Watt)
system.mem_ctrl.dram.rank0.totalIdleTime            0                       # Total Idle time Per DRAM Rank (Tick)
system.mem_ctrl.dram.rank0.pwrStateTime::IDLE    323301250                       # Time in different power states (Tick)
system.mem_ctrl.dram.rank0.pwrStateTime::REF     25480000                       # Time in different power states (Tick)
system.mem_ctrl.dram.rank0.pwrStateTime::SREF            0                       # Time in different power states (Tick)
system.mem_ctrl.dram.rank0.pwrStateTime::PRE_PDN            0                       # Time in different power states (Tick)
system.mem_ctrl.dram.rank0.pwrStateTime::ACT    415538750                       # Time in different power states (Tick)
system.mem_ctrl.dram.rank0.pwrStateTime::ACT_PDN            0                       # Time in different power states (Tick)
system.mem_ctrl.dram.rank1.actEnergy          2713200                       # Energy for activate commands per rank (pJ) (Joule)
system.mem_ctrl.dram.rank1.preEnergy          1430715                       # Energy for precharge commands per rank (pJ) (Joule)
system.mem_ctrl.dram.rank1.readEnergy        15400980                       # Energy for read commands per rank (pJ) (Joule)
system.mem_ctrl.dram.rank1.writeEnergy              0                       # Energy for write commands per rank (pJ) (Joule)
system.mem_ctrl.dram.rank1.refreshEnergy 60234720.000000                       # Energy for refresh commands per rank (pJ) (Joule)
system.mem_ctrl.dram.rank1.actBackEnergy    151502010                       # Energy for active background per rank (pJ) (Joule)
system.mem_ctrl.dram.rank1.preBackEnergy    165918240                       # Energy for precharge background per rank (pJ) (Joule)
system.mem_ctrl.dram.rank1.actPowerDownEnergy            0                       # Energy for active power-down per rank (pJ) (Joule)
system.mem_ctrl.dram.rank1.prePowerDownEnergy            0                       # Energy for precharge power-down per rank (pJ) (Joule)
system.mem_ctrl.dram.rank1.selfRefreshEnergy            0                       # Energy for self refresh per rank (pJ) (Joule)
system.mem_ctrl.dram.rank1.totalEnergy      397199865                       # Total energy per rank (pJ) (Joule)
system.mem_ctrl.dram.rank1.averagePower    519.677445                       # Core power per rank (mW) (Watt)
system.mem_ctrl.dram.rank1.totalIdleTime            0                       # Total Idle time Per DRAM Rank (Tick)
system.mem_ctrl.dram.rank1.pwrStateTime::IDLE    429711500                       # Time in different power states (Tick)
system.mem_ctrl.dram.rank1.pwrStateTime::REF     25480000                       # Time in different power states (Tick)
system.mem_ctrl.dram.rank1.pwrStateTime::SREF            0                       # Time in different power states (Tick)
system.mem_ctrl.dram.rank1.pwrStateTime::PRE_PDN            0                       # Time in different power states (Tick)
system.mem_ctrl.dram.rank1.pwrStateTime::ACT    309128500                       # Time in different power states (Tick)
system.mem_ctrl.dram.rank1.pwrStateTime::ACT_PDN            0                       # Time in different power states (Tick)
system.mem_ctrl.power_state.pwrStateResidencyTicks::UNDEFINED    764320000                       # Cumulative time (in ticks) in various power states (Tick)
system.membus.transDist::ReadResp                3025                       # Transaction distribution (Count)
system.membus.transDist::CleanEvict                12                       # Transaction distribution (Count)
system.membus.transDist::UpgradeReq                 1                       # Transaction distribution (Count)
system.membus.transDist::ReadExReq               1931                       # Transaction distribution (Count)
system.membus.transDist::ReadExResp              1931                       # Transaction distribution (Count)
system.membus.transDist::ReadSharedReq           3025                       # Transaction distribution (Count)
system.membus.pktCount_system.cpu.l2cache.mem_side_port::system.mem_ctrl.port         9925                       # Packet count per connected requestor and responder (Count)
system.membus.pktCount_system.cpu.l2cache.mem_side_port::total         9925                       # Packet count per connected requestor and responder (Count)
system.membus.pktCount::total                    9925                       # Packet count per connected requestor and responder (Count)
system.membus.pktSize_system.cpu.l2cache.mem_side_port::system.mem_ctrl.port       317184                       # Cumulative packet size per connected requestor and responder (Byte)
system.membus.pktSize_system.cpu.l2cache.mem_side_port::total       317184                       # Cumulative packet size per connected requestor and responder (Byte)
system.membus.pktSize::total                   317184                       # Cumulative packet size per connected requestor and responder (Byte)
system.membus.snoops                                1                       # Total snoops (Count)
system.membus.snoopTraffic                          0                       # Total snoop traffic (Byte)
system.membus.snoopFanout::samples               4957                       # Request fanout histogram (Count)
system.membus.snoopFanout::mean                     0                       # Request fanout histogram (Count)
system.membus.snoopFanout::stdev                    0                       # Request fanout histogram (Count)
system.membus.snoopFanout::underflows               0      0.00%      0.00% # Request fanout histogram (Count)
system.membus.snoopFanout::0                     4957    100.00%    100.00% # Request fanout histogram (Count)
system.membus.snoopFanout::1                        0      0.00%    100.00% # Request fanout histogram (Count)
system.membus.snoopFanout::overflows                0      0.00%    100.00% # Request fanout histogram (Count)
system.membus.snoopFanout::min_value                0                       # Request fanout histogram (Count)
system.membus.snoopFanout::max_value                0                       # Request fanout histogram (Count)
system.membus.snoopFanout::total                 4957                       # Request fanout histogram (Count)
system.membus.power_state.pwrStateResidencyTicks::UNDEFINED    764320000                       # Cumulative time (in ticks) in various power states (Tick)
system.membus.reqLayer2.occupancy             2484000                       # Layer occupancy (ticks) (Tick)
system.membus.reqLayer2.utilization               0.0                       # Layer utilization (Ratio)
system.membus.respLayer0.occupancy           13484750                       # Layer occupancy (ticks) (Tick)
system.membus.respLayer0.utilization              0.0                       # Layer utilization (Ratio)
system.membus.snoop_filter.totRequests           4969                       # Total number of requests made to the snoop filter. (Count)
system.membus.snoop_filter.hitSingleRequests           13                       # Number of requests hitting in the snoop filter with a single holder of the requested data. (Count)
system.membus.snoop_filter.hitMultiRequests            0                       # Number of requests hitting in the snoop filter with multiple (>1) holders of the requested data. (Count)
system.membus.snoop_filter.totSnoops                0                       # Total number of snoops made to the snoop filter. (Count)
system.membus.snoop_filter.hitSingleSnoops            0                       # Number of snoops hitting in the snoop filter with a single holder of the requested data. (Count)
system.membus.snoop_filter.hitMultiSnoops            0                       # Number of snoops hitting in the snoop filter with multiple (>1) holders of the requested data. (Count)
system.workload.inst.arm                            0                       # number of arm instructions executed (Count)
system.workload.inst.quiesce                        0                       # number of quiesce instructions executed (Count)

---------- End Simulation Statistics   ----------
