b'Global frequency set at 1000000000000 ticks per second\ngem5 Simulator System.  https://www.gem5.org\ngem5 is copyrighted software; use the --copyright option for details.\n\ngem5 version 22.1.0.0\ngem5 compiled Jan 23 2023 22:25:47\ngem5 started Mar 22 2023 17:32:33\ngem5 executing on hritaban-VirtualBox, pid 7149\ncommand line: /home/hritaban/gem5/build/X86/gem5.opt -d /home/hritaban/gem5/configs/hpca_group_9_assignment/outputs/output_LQEntries_32_SQEntries_32_l1d_size_64kB_l1i_size_16kB_l2_size_512kB_bp_type_BiModeBP_ROBEntries_192_numIQEntries_64 /home/hritaban/gem5/configs/hpca_group_9_assignment/config.py -c /home/hritaban/gem5/configs/hpca_group_9_assignment/sieve --LQEntries=32 --SQEntries=32 --l1d_size=64kB --l1i_size=16kB --l2_size=512kB --bp_type=BiModeBP --ROBEntries=192 --numIQEntries=64\n\nBeginning simulation!\n\nPrime numbers below 10000:\n0\n1\n2\n3\n5\n7\n11\n13\n17\n19\n23\n29\n31\n37\n41\n43\n47\n53\n59\n61\n67\n71\n73\n79\n83\n89\n97\n101\n103\n107\n109\n113\n127\n131\n137\n139\n149\n151\n157\n163\n167\n173\n179\n181\n191\n193\n197\n199\n211\n223\n227\n229\n233\n239\n241\n251\n257\n263\n269\n271\n277\n281\n283\n293\n307\n311\n313\n317\n331\n337\n347\n349\n353\n359\n367\n373\n379\n383\n389\n397\n401\n409\n419\n421\n431\n433\n439\n443\n449\n457\n461\n463\n467\n479\n487\n491\n499\n503\n509\n521\n523\n541\n547\n557\n563\n569\n571\n577\n587\n593\n599\n601\n607\n613\n617\n619\n631\n641\n643\n647\n653\n659\n661\n673\n677\n683\n691\n701\n709\n719\n727\n733\n739\n743\n751\n757\n761\n769\n773\n787\n797\n809\n811\n821\n823\n827\n829\n839\n853\n857\n859\n863\n877\n881\n883\n887\n907\n911\n919\n929\n937\n941\n947\n953\n967\n971\n977\n983\n991\n997\n1009\n1013\n1019\n1021\n1031\n1033\n1039\n1049\n1051\n1061\n1063\n1069\n1087\n1091\n1093\n1097\n1103\n1109\n1117\n1123\n1129\n1151\n1153\n1163\n1171\n1181\n1187\n1193\n1201\n1213\n1217\n1223\n1229\n1231\n1237\n1249\n1259\n1277\n1279\n1283\n1289\n1291\n1297\n1301\n1303\n1307\n1319\n1321\n1327\n1361\n1367\n1373\n1381\n1399\n1409\n1423\n1427\n1429\n1433\n1439\n1447\n1451\n1453\n1459\n1471\n1481\n1483\n1487\n1489\n1493\n1499\n1511\n1523\n1531\n1543\n1549\n1553\n1559\n1567\n1571\n1579\n1583\n1597\n1601\n1607\n1609\n1613\n1619\n1621\n1627\n1637\n1657\n1663\n1667\n1669\n1693\n1697\n1699\n1709\n1721\n1723\n1733\n1741\n1747\n1753\n1759\n1777\n1783\n1787\n1789\n1801\n1811\n1823\n1831\n1847\n1861\n1867\n1871\n1873\n1877\n1879\n1889\n1901\n1907\n1913\n1931\n1933\n1949\n1951\n1973\n1979\n1987\n1993\n1997\n1999\n2003\n2011\n2017\n2027\n2029\n2039\n2053\n2063\n2069\n2081\n2083\n2087\n2089\n2099\n2111\n2113\n2129\n2131\n2137\n2141\n2143\n2153\n2161\n2179\n2203\n2207\n2213\n2221\n2237\n2239\n2243\n2251\n2267\n2269\n2273\n2281\n2287\n2293\n2297\n2309\n2311\n2333\n2339\n2341\n2347\n2351\n2357\n2371\n2377\n2381\n2383\n2389\n2393\n2399\n2411\n2417\n2423\n2437\n2441\n2447\n2459\n2467\n2473\n2477\n2503\n2521\n2531\n2539\n2543\n2549\n2551\n2557\n2579\n2591\n2593\n2609\n2617\n2621\n2633\n2647\n2657\n2659\n2663\n2671\n2677\n2683\n2687\n2689\n2693\n2699\n2707\n2711\n2713\n2719\n2729\n2731\n2741\n2749\n2753\n2767\n2777\n2789\n2791\n2797\n2801\n2803\n2819\n2833\n2837\n2843\n2851\n2857\n2861\n2879\n2887\n2897\n2903\n2909\n2917\n2927\n2939\n2953\n2957\n2963\n2969\n2971\n2999\n3001\n3011\n3019\n3023\n3037\n3041\n3049\n3061\n3067\n3079\n3083\n3089\n3109\n3119\n3121\n3137\n3163\n3167\n3169\n3181\n3187\n3191\n3203\n3209\n3217\n3221\n3229\n3251\n3253\n3257\n3259\n3271\n3299\n3301\n3307\n3313\n3319\n3323\n3329\n3331\n3343\n3347\n3359\n3361\n3371\n3373\n3389\n3391\n3407\n3413\n3433\n3449\n3457\n3461\n3463\n3467\n3469\n3491\n3499\n3511\n3517\n3527\n3529\n3533\n3539\n3541\n3547\n3557\n3559\n3571\n3581\n3583\n3593\n3607\n3613\n3617\n3623\n3631\n3637\n3643\n3659\n3671\n3673\n3677\n3691\n3697\n3701\n3709\n3719\n3727\n3733\n3739\n3761\n3767\n3769\n3779\n3793\n3797\n3803\n3821\n3823\n3833\n3847\n3851\n3853\n3863\n3877\n3881\n3889\n3907\n3911\n3917\n3919\n3923\n3929\n3931\n3943\n3947\n3967\n3989\n4001\n4003\n4007\n4013\n4019\n4021\n4027\n4049\n4051\n4057\n4073\n4079\n4091\n4093\n4099\n4111\n4127\n4129\n4133\n4139\n4153\n4157\n4159\n4177\n4201\n4211\n4217\n4219\n4229\n4231\n4241\n4243\n4253\n4259\n4261\n4271\n4273\n4283\n4289\n4297\n4327\n4337\n4339\n4349\n4357\n4363\n4373\n4391\n4397\n4409\n4421\n4423\n4441\n4447\n4451\n4457\n4463\n4481\n4483\n4493\n4507\n4513\n4517\n4519\n4523\n4547\n4549\n4561\n4567\n4583\n4591\n4597\n4603\n4621\n4637\n4639\n4643\n4649\n4651\n4657\n4663\n4673\n4679\n4691\n4703\n4721\n4723\n4729\n4733\n4751\n4759\n4783\n4787\n4789\n4793\n4799\n4801\n4813\n4817\n4831\n4861\n4871\n4877\n4889\n4903\n4909\n4919\n4931\n4933\n4937\n4943\n4951\n4957\n4967\n4969\n4973\n4987\n4993\n4999\n5003\n5009\n5011\n5021\n5023\n5039\n5051\n5059\n5077\n5081\n5087\n5099\n5101\n5107\n5113\n5119\n5147\n5153\n5167\n5171\n5179\n5189\n5197\n5209\n5227\n5231\n5233\n5237\n5261\n5273\n5279\n5281\n5297\n5303\n5309\n5323\n5333\n5347\n5351\n5381\n5387\n5393\n5399\n5407\n5413\n5417\n5419\n5431\n5437\n5441\n5443\n5449\n5471\n5477\n5479\n5483\n5501\n5503\n5507\n5519\n5521\n5527\n5531\n5557\n5563\n5569\n5573\n5581\n5591\n5623\n5639\n5641\n5647\n5651\n5653\n5657\n5659\n5669\n5683\n5689\n5693\n5701\n5711\n5717\n5737\n5741\n5743\n5749\n5779\n5783\n5791\n5801\n5807\n5813\n5821\n5827\n5839\n5843\n5849\n5851\n5857\n5861\n5867\n5869\n5879\n5881\n5897\n5903\n5923\n5927\n5939\n5953\n5981\n5987\n6007\n6011\n6029\n6037\n6043\n6047\n6053\n6067\n6073\n6079\n6089\n6091\n6101\n6113\n6121\n6131\n6133\n6143\n6151\n6163\n6173\n6197\n6199\n6203\n6211\n6217\n6221\n6229\n6247\n6257\n6263\n6269\n6271\n6277\n6287\n6299\n6301\n6311\n6317\n6323\n6329\n6337\n6343\n6353\n6359\n6361\n6367\n6373\n6379\n6389\n6397\n6421\n6427\n6449\n6451\n6469\n6473\n6481\n6491\n6521\n6529\n6547\n6551\n6553\n6563\n6569\n6571\n6577\n6581\n6599\n6607\n6619\n6637\n6653\n6659\n6661\n6673\n6679\n6689\n6691\n6701\n6703\n6709\n6719\n6733\n6737\n6761\n6763\n6779\n6781\n6791\n6793\n6803\n6823\n6827\n6829\n6833\n6841\n6857\n6863\n6869\n6871\n6883\n6899\n6907\n6911\n6917\n6947\n6949\n6959\n6961\n6967\n6971\n6977\n6983\n6991\n6997\n7001\n7013\n7019\n7027\n7039\n7043\n7057\n7069\n7079\n7103\n7109\n7121\n7127\n7129\n7151\n7159\n7177\n7187\n7193\n7207\n7211\n7213\n7219\n7229\n7237\n7243\n7247\n7253\n7283\n7297\n7307\n7309\n7321\n7331\n7333\n7349\n7351\n7369\n7393\n7411\n7417\n7433\n7451\n7457\n7459\n7477\n7481\n7487\n7489\n7499\n7507\n7517\n7523\n7529\n7537\n7541\n7547\n7549\n7559\n7561\n7573\n7577\n7583\n7589\n7591\n7603\n7607\n7621\n7639\n7643\n7649\n7669\n7673\n7681\n7687\n7691\n7699\n7703\n7717\n7723\n7727\n7741\n7753\n7757\n7759\n7789\n7793\n7817\n7823\n7829\n7841\n7853\n7867\n7873\n7877\n7879\n7883\n7901\n7907\n7919\n7927\n7933\n7937\n7949\n7951\n7963\n7993\n8009\n8011\n8017\n8039\n8053\n8059\n8069\n8081\n8087\n8089\n8093\n8101\n8111\n8117\n8123\n8147\n8161\n8167\n8171\n8179\n8191\n8209\n8219\n8221\n8231\n8233\n8237\n8243\n8263\n8269\n8273\n8287\n8291\n8293\n8297\n8311\n8317\n8329\n8353\n8363\n8369\n8377\n8387\n8389\n8419\n8423\n8429\n8431\n8443\n8447\n8461\n8467\n8501\n8513\n8521\n8527\n8537\n8539\n8543\n8563\n8573\n8581\n8597\n8599\n8609\n8623\n8627\n8629\n8641\n8647\n8663\n8669\n8677\n8681\n8689\n8693\n8699\n8707\n8713\n8719\n8731\n8737\n8741\n8747\n8753\n8761\n8779\n8783\n8803\n8807\n8819\n8821\n8831\n8837\n8839\n8849\n8861\n8863\n8867\n8887\n8893\n8923\n8929\n8933\n8941\n8951\n8963\n8969\n8971\n8999\n9001\n9007\n9011\n9013\n9029\n9041\n9043\n9049\n9059\n9067\n9091\n9103\n9109\n9127\n9133\n9137\n9151\n9157\n9161\n9173\n9181\n9187\n9199\n9203\n9209\n9221\n9227\n9239\n9241\n9257\n9277\n9281\n9283\n9293\n9311\n9319\n9323\n9337\n9341\n9343\n9349\n9371\n9377\n9391\n9397\n9403\n9413\n9419\n9421\n9431\n9433\n9437\n9439\n9461\n9463\n9467\n9473\n9479\n9491\n9497\n9511\n9521\n9533\n9539\n9547\n9551\n9587\n9601\n9613\n9619\n9623\n9629\n9631\n9643\n9649\n9661\n9677\n9679\n9689\n9697\n9719\n9721\n9733\n9739\n9743\n9749\n9767\n9769\n9781\n9787\n9791\n9803\n9811\n9817\n9829\n9833\n9839\n9851\n9857\n9859\n9871\n9883\n9887\n9901\n9907\n9923\n9929\n9931\n9941\n9949\n9967\n9973\n\nCalculation time: 0.0001 seconds\nTotal primes: 1231\nExiting @ tick 765244500 because exiting with last active thread context\n'
